/*--------------------------------*- C++ -*----------------------------------*\
| =========                 |                                                 |
| \\      /  F ield         | OpenFOAM: The Open Source CFD Toolbox           |
|  \\    /   O peration     | Version:  2312                                  |
|   \\  /    A nd           | Website:  www.openfoam.com                      |
|    \\/     M anipulation  |                                                 |
\*---------------------------------------------------------------------------*/
FoamFile
{
    version     2.0;
    format      ascii;
    arch        "LSB;label=32;scalar=64";
    class       volVectorField;
    location    "constant";
    object      C;
}
// * * * * * * * * * * * * * * * * * * * * * * * * * * * * * * * * * * * * * //

dimensions      [0 1 0 0 0 0 0];

internalField   nonuniform List<vector> 
3780
(
(0.402185 0.0321683 9.57597e-19)
(0.427646 0.0321854 4.86699e-20)
(0.454622 0.0322015 -9.24789e-21)
(0.483206 0.0322165 3.82003e-19)
(0.513491 0.0322307 -7.55648e-19)
(0.545579 0.0322439 3.85113e-19)
(0.579579 0.0322564 9.17202e-20)
(0.615602 0.032268 -1.18337e-18)
(0.653771 0.032279 -9.74904e-19)
(0.694212 0.0322893 1.30965e-18)
(0.73706 0.032299 -2.38249e-18)
(0.78246 0.0323081 -1.45497e-18)
(0.830562 0.0323167 -2.61532e-19)
(0.881529 0.0323248 2.35757e-18)
(0.935529 0.0323323 2.25765e-18)
(0.992744 0.0323395 -3.55243e-18)
(1.05337 0.0323462 4.69132e-20)
(1.11759 0.0323525 1.21129e-18)
(1.18565 0.0323584 1.22381e-18)
(1.25775 0.032364 8.88102e-19)
(1.32216 0.0323685 -2.83434e-19)
(1.37656 0.032372 1.35217e-18)
(1.4298 0.0323751 0)
(1.48193 0.032378 -5.19754e-18)
(1.53296 0.0323806 7.80325e-19)
(1.58291 0.032383 -3.68269e-20)
(1.6318 0.0323851 -3.6845e-20)
(1.67966 0.0323872 -5.20151e-18)
(1.72652 0.032389 -3.86453e-18)
(1.77238 0.0323908 -5.14547e-18)
(1.81728 0.0323924 -3.73684e-18)
(1.86123 0.0323939 0)
(1.90425 0.0323953 0)
(1.94637 0.0323966 1.25213e-18)
(1.98759 0.0323978 1.40663e-18)
(2.02795 0.032399 -2.50832e-18)
(2.06745 0.0324001 -2.47649e-18)
(2.10612 0.0324011 5.86817e-19)
(2.14397 0.0324021 0)
(2.18102 0.032403 2.48144e-18)
(0.402914 0.0979874 1.43765e-18)
(0.429845 0.0980067 0)
(0.45838 0.0980247 3.08837e-19)
(0.488615 0.0980415 -9.03092e-19)
(0.52065 0.0980571 1.4459e-18)
(0.554592 0.0980717 -1.27787e-18)
(0.590555 0.0980853 1.84993e-18)
(0.62866 0.0980981 5.3754e-19)
(0.669034 0.09811 -4.8533e-19)
(0.711811 0.0981211 -1.54215e-18)
(0.757135 0.0981316 -5.21213e-19)
(0.805158 0.0981414 2.49098e-18)
(0.856039 0.0981505 1.2974e-18)
(0.90995 0.0981591 0)
(0.96707 0.0981672 -1.99988e-19)
(1.02759 0.0981747 -7.26228e-19)
(1.09171 0.0981818 5.46475e-18)
(1.15965 0.0981885 -2.51e-18)
(1.23164 0.0981947 9.30546e-20)
(1.30791 0.0982006 6.28235e-19)
(1.37603 0.0982053 1.33936e-18)
(1.43357 0.0982089 -2.1783e-18)
(1.4899 0.0982122 -2.63853e-18)
(1.54503 0.0982152 3.53864e-18)
(1.59901 0.0982179 -8.18996e-18)
(1.65184 0.0982204 3.96919e-19)
(1.70356 0.0982227 -1.28089e-18)
(1.75419 0.0982248 3.87163e-20)
(1.80375 0.0982267 -6.98271e-18)
(1.85227 0.0982285 6.10847e-18)
(1.89976 0.0982302 2.13626e-18)
(1.94625 0.0982318 -6.80418e-18)
(1.99175 0.0982332 7.27004e-18)
(2.0363 0.0982346 4.47579e-18)
(2.07991 0.0982359 4.64693e-19)
(2.12259 0.0982371 4.44204e-18)
(2.16438 0.0982382 -4.93184e-18)
(2.20528 0.0982392 2.56475e-18)
(2.24532 0.0982402 -1.69123e-18)
(2.28452 0.0982412 4.85465e-18)
(0.403691 0.168088 1.80039e-18)
(0.432189 0.168109 -2.88354e-19)
(0.462383 0.16813 -4.52437e-19)
(0.494376 0.168148 -1.02309e-18)
(0.528275 0.168165 2.11785e-18)
(0.564191 0.168181 5.36932e-19)
(0.602247 0.168196 -4.84399e-19)
(0.642568 0.16821 -6.3524e-19)
(0.68529 0.168223 2.23773e-20)
(0.730556 0.168235 3.59049e-20)
(0.778517 0.168246 -7.80952e-19)
(0.829333 0.168257 2.67517e-18)
(0.883174 0.168267 1.25302e-19)
(0.940221 0.168276 -7.39206e-20)
(1.00066 0.168284 -8.31928e-19)
(1.0647 0.168292 1.27676e-18)
(1.13256 0.1683 9.00077e-20)
(1.20445 0.168307 5.1938e-18)
(1.28062 0.168313 -1.80405e-18)
(1.36133 0.16832 -1.82156e-18)
(1.43341 0.168324 1.44837e-19)
(1.4943 0.168328 6.19205e-18)
(1.5539 0.168332 -4.44917e-18)
(1.61224 0.168335 1.48336e-19)
(1.66936 0.168338 0)
(1.72526 0.16834 1.2988e-19)
(1.77999 0.168343 -2.25802e-19)
(1.83357 0.168345 -2.17899e-18)
(1.88601 0.168347 -1.48513e-19)
(1.93735 0.168349 -8.14872e-19)
(1.9876 0.16835 1.77305e-18)
(2.03679 0.168352 -7.63808e-18)
(2.08495 0.168353 8.09588e-19)
(2.13208 0.168355 -4.37162e-18)
(2.17823 0.168356 -2.3834e-18)
(2.2234 0.168357 5.69769e-18)
(2.26761 0.168359 -1.76617e-18)
(2.31089 0.16836 -2.29822e-18)
(2.35326 0.168361 -3.70765e-19)
(2.39474 0.168362 -6.84739e-18)
(0.404519 0.242747 0)
(0.434685 0.242772 7.84813e-19)
(0.466648 0.242794 -6.35803e-19)
(0.500514 0.242815 -1.28909e-18)
(0.536396 0.242834 -9.66156e-21)
(0.574416 0.242852 -5.14448e-19)
(0.614699 0.242868 8.00891e-19)
(0.657381 0.242883 -1.01669e-19)
(0.702605 0.242897 2.66555e-18)
(0.75052 0.24291 3.73143e-19)
(0.801289 0.242922 2.3204e-18)
(0.85508 0.242933 3.24858e-19)
(0.912074 0.242944 -1.54986e-18)
(0.97246 0.242953 6.0292e-19)
(1.03644 0.242962 -2.58673e-18)
(1.10423 0.242971 9.97065e-19)
(1.17606 0.242979 9.67686e-19)
(1.25216 0.242986 -1.32736e-18)
(1.33279 0.242993 -1.91158e-20)
(1.41822 0.242999 1.39355e-19)
(1.49452 0.243005 1.93258e-18)
(1.55897 0.243008 1.46398e-19)
(1.62206 0.243012 1.5027e-18)
(1.68382 0.243015 -1.63384e-18)
(1.74428 0.243018 -3.86109e-20)
(1.80346 0.243021 3.69881e-18)
(1.86139 0.243023 -2.03695e-18)
(1.9181 0.243026 -5.59706e-19)
(1.97362 0.243028 8.16726e-18)
(2.02796 0.24303 2.01489e-18)
(2.08115 0.243031 -1.09698e-17)
(2.13323 0.243033 -9.22301e-19)
(2.1842 0.243035 -3.38826e-18)
(2.2341 0.243036 3.98236e-19)
(2.28294 0.243037 -2.13074e-18)
(2.33076 0.243039 -1.74491e-18)
(2.37756 0.24304 -5.95631e-18)
(2.42338 0.243041 3.51221e-18)
(2.46823 0.243042 -5.76944e-18)
(2.51213 0.243043 -9.08814e-18)
(0.405403 0.322263 -2.34535e-20)
(0.437345 0.322291 -3.49356e-19)
(0.47119 0.322316 -2.19854e-18)
(0.507051 0.322339 -9.65754e-21)
(0.545047 0.32236 -9.16733e-19)
(0.585306 0.322379 2.16567e-18)
(0.627962 0.322397 -6.92867e-20)
(0.673159 0.322413 4.68595e-19)
(0.721046 0.322428 1.09308e-18)
(0.771784 0.322442 -7.64214e-19)
(0.825543 0.322455 -3.71006e-18)
(0.882503 0.322467 1.13993e-19)
(0.942854 0.322478 2.13537e-18)
(1.0068 0.322488 1.66538e-18)
(1.07455 0.322498 1.14723e-18)
(1.14633 0.322507 -3.04729e-18)
(1.22239 0.322515 -4.35289e-18)
(1.30297 0.322523 4.98529e-19)
(1.38836 0.32253 2.89355e-18)
(1.47882 0.322537 -4.58981e-18)
(1.55961 0.322542 -2.7683e-18)
(1.62786 0.322546 5.33721e-18)
(1.69466 0.32255 1.96477e-18)
(1.76006 0.322553 4.41058e-18)
(1.82408 0.322556 5.87796e-19)
(1.88674 0.322559 -2.09042e-19)
(1.94809 0.322562 1.48368e-19)
(2.00814 0.322564 -1.60449e-18)
(2.06692 0.322566 6.30782e-18)
(2.12447 0.322568 2.22483e-18)
(2.18079 0.32257 3.22842e-18)
(2.23593 0.322572 -4.927e-18)
(2.28991 0.322573 8.30358e-18)
(2.34275 0.322575 -5.73826e-18)
(2.39447 0.322576 -5.09336e-18)
(2.4451 0.322578 8.20616e-18)
(2.49466 0.322579 5.03095e-18)
(2.54318 0.32258 5.13731e-19)
(2.59067 0.322581 -5.5233e-18)
(2.63716 0.322582 -4.39237e-19)
(0.406345 0.406951 6.76808e-19)
(0.440179 0.406982 3.12037e-19)
(0.476029 0.40701 0)
(0.514014 0.407035 -1.70109e-19)
(0.554261 0.407058 2.19146e-18)
(0.596906 0.40708 7.08194e-19)
(0.642089 0.407099 -6.27167e-19)
(0.689963 0.407117 1.27441e-19)
(0.740687 0.407133 -1.92713e-18)
(0.794432 0.407148 1.76163e-18)
(0.851376 0.407161 3.27161e-18)
(0.91171 0.407174 6.35891e-19)
(0.975637 0.407186 8.52387e-20)
(1.04337 0.407197 1.46564e-19)
(1.11513 0.407207 -5.67062e-19)
(1.19117 0.407216 4.25706e-18)
(1.27173 0.407225 -2.7468e-19)
(1.35709 0.407233 -2.42966e-19)
(1.44753 0.407241 1.79718e-18)
(1.54336 0.407248 -3.12694e-18)
(1.62893 0.407253 -4.23914e-18)
(1.70122 0.407257 6.22512e-18)
(1.77198 0.407261 1.94963e-19)
(1.84125 0.407265 3.2619e-18)
(1.90906 0.407268 1.15711e-18)
(1.97544 0.407271 4.5829e-19)
(2.04042 0.407273 3.39523e-20)
(2.10403 0.407276 1.80088e-18)
(2.1663 0.407278 -4.40357e-18)
(2.22725 0.40728 -2.35534e-18)
(2.28692 0.407282 2.26244e-18)
(2.34532 0.407284 4.33567e-18)
(2.4025 0.407286 -3.71117e-19)
(2.45846 0.407287 3.87155e-20)
(2.51325 0.407289 7.32804e-18)
(2.56688 0.40729 -4.13711e-18)
(2.61938 0.407291 -3.87481e-20)
(2.67077 0.407292 -5.88054e-19)
(2.72107 0.407294 -9.97191e-18)
(2.77031 0.407295 -4.29637e-19)
(0.40735 0.497147 3.068e-19)
(0.443199 0.497182 5.32268e-19)
(0.481184 0.497213 9.5967e-20)
(0.521432 0.497241 -8.05977e-19)
(0.564076 0.497267 1.22873e-18)
(0.60926 0.49729 1.40297e-18)
(0.657135 0.497311 -1.06631e-18)
(0.707861 0.49733 -9.58591e-21)
(0.761607 0.497347 -1.91573e-20)
(0.818553 0.497363 -9.29456e-20)
(0.878889 0.497378 -1.38804e-18)
(0.942818 0.497391 1.00598e-18)
(1.01055 0.497404 9.88549e-19)
(1.08232 0.497415 1.11739e-18)
(1.15836 0.497426 2.92198e-18)
(1.23893 0.497436 -4.76542e-19)
(1.32429 0.497445 2.2573e-18)
(1.41473 0.497453 -4.63637e-18)
(1.51056 0.497461 3.46162e-19)
(1.61209 0.497468 5.83668e-19)
(1.70276 0.497474 -2.66476e-20)
(1.77935 0.497479 -4.35273e-18)
(1.85433 0.497483 -1.05273e-17)
(1.92773 0.497486 2.15648e-18)
(1.99958 0.49749 1.95793e-18)
(2.06991 0.497492 1.11708e-17)
(2.13876 0.497495 0)
(2.20616 0.497498 6.08811e-18)
(2.27214 0.4975 1.19855e-17)
(2.33672 0.497502 7.62298e-19)
(2.39994 0.497504 3.89524e-18)
(2.46183 0.497506 2.41818e-18)
(2.52241 0.497508 3.63409e-18)
(2.58171 0.497509 3.81506e-18)
(2.63976 0.497511 -7.49184e-18)
(2.69658 0.497512 -1.68737e-18)
(2.75221 0.497513 2.40772e-18)
(2.80666 0.497515 7.74677e-18)
(2.85996 0.497516 4.16515e-18)
(2.91213 0.497517 -1.51479e-17)
(0.408422 0.59321 -1.26516e-18)
(0.446417 0.593249 -8.17262e-20)
(0.486676 0.593284 2.2693e-18)
(0.529332 0.593315 1.05508e-18)
(0.57453 0.593343 6.02036e-19)
(0.622419 0.593368 6.3539e-19)
(0.673161 0.59339 -9.57814e-21)
(0.726923 0.593411 -7.14177e-19)
(0.783887 0.59343 -9.08951e-20)
(0.844243 0.593447 7.16305e-19)
(0.908192 0.593462 1.00108e-18)
(0.975949 0.593477 9.30733e-19)
(1.04774 0.59349 9.566e-19)
(1.1238 0.593502 -1.93931e-18)
(1.2044 0.593513 2.71107e-18)
(1.28979 0.593523 1.90639e-20)
(1.38026 0.593533 1.11037e-18)
(1.47612 0.593542 -3.07862e-18)
(1.57769 0.59355 -3.80911e-20)
(1.6853 0.593558 0)
(1.78139 0.593564 -1.26478e-18)
(1.86257 0.593568 -3.64142e-18)
(1.94204 0.593572 -2.19693e-18)
(2.01983 0.593576 -3.96845e-18)
(2.09598 0.593579 3.89184e-18)
(2.17053 0.593582 -3.03932e-18)
(2.2435 0.593585 -5.06537e-18)
(2.31493 0.593588 -1.63585e-18)
(2.38486 0.59359 -1.32093e-19)
(2.45331 0.593592 -1.1758e-17)
(2.52032 0.593594 -3.86377e-20)
(2.58591 0.593596 3.34027e-18)
(2.65011 0.593598 -3.1731e-18)
(2.71297 0.5936 3.1368e-18)
(2.77449 0.593601 2.7901e-18)
(2.83472 0.593603 9.3528e-18)
(2.89367 0.593604 -3.44024e-18)
(2.95139 0.593605 -6.88314e-18)
(3.00788 0.593607 0)
(3.06318 0.593608 6.34382e-20)
(0.409565 0.695521 -4.78891e-19)
(0.449845 0.695565 -2.19692e-18)
(0.492526 0.695603 -6.46659e-19)
(0.537748 0.695638 -1.51766e-18)
(0.585665 0.695668 4.52757e-19)
(0.636435 0.695695 6.63055e-19)
(0.69023 0.69572 8.85052e-20)
(0.747227 0.695742 2.54942e-18)
(0.807618 0.695762 1.079e-18)
(0.871605 0.69578 -1.26057e-19)
(0.939402 0.695797 1.23588e-18)
(1.01124 0.695812 -1.28698e-19)
(1.08735 0.695826 -1.69713e-18)
(1.16799 0.695839 1.45229e-18)
(1.25343 0.695851 2.62789e-19)
(1.34396 0.695861 2.31344e-19)
(1.43987 0.695871 -1.89427e-18)
(1.5415 0.69588 2.90487e-18)
(1.64918 0.695889 -2.68761e-18)
(1.76327 0.695897 -3.80491e-20)
(1.86514 0.695903 0)
(1.9512 0.695908 4.95436e-18)
(2.03545 0.695912 -1.23199e-18)
(2.11792 0.695916 -4.25854e-18)
(2.19866 0.695919 -3.70347e-18)
(2.27769 0.695922 3.34876e-19)
(2.35505 0.695925 -2.94765e-18)
(2.43078 0.695928 3.56851e-19)
(2.50491 0.69593 -8.19026e-18)
(2.57748 0.695933 -2.52545e-18)
(2.64852 0.695935 4.98451e-19)
(2.71806 0.695937 -1.23052e-19)
(2.78613 0.695939 -5.35607e-18)
(2.85276 0.69594 -1.48431e-19)
(2.91799 0.695942 -3.49497e-18)
(2.98184 0.695943 1.02571e-17)
(3.04434 0.695945 8.27228e-18)
(3.10553 0.695946 5.51821e-18)
(3.16542 0.695947 -7.74381e-20)
(3.22405 0.695948 -1.84566e-17)
(0.410785 0.804486 -5.0315e-20)
(0.453498 0.804536 2.76943e-18)
(0.498757 0.804578 1.40751e-18)
(0.546713 0.804616 -9.9029e-19)
(0.597525 0.80465 4.51648e-19)
(0.651364 0.804679 2.42746e-18)
(0.708409 0.804706 7.48965e-19)
(0.768852 0.80473 -5.83587e-19)
(0.832893 0.804751 1.16195e-18)
(0.900748 0.804771 -6.16165e-19)
(0.972643 0.804788 -5.35368e-18)
(1.04882 0.804804 9.50856e-19)
(1.12953 0.804819 -2.47679e-18)
(1.21504 0.804832 -1.97826e-18)
(1.30565 0.804844 2.18888e-19)
(1.40165 0.804856 -1.66516e-18)
(1.50337 0.804866 -1.65065e-18)
(1.61114 0.804876 1.47581e-18)
(1.72532 0.804884 -8.1467e-18)
(1.84631 0.804892 7.74026e-20)
(1.95433 0.804899 -2.74195e-18)
(2.0456 0.804904 -3.57577e-18)
(2.13494 0.804908 -7.69725e-18)
(2.2224 0.804912 -5.76765e-18)
(2.30801 0.804916 2.69177e-18)
(2.39182 0.804919 -1.1803e-17)
(2.47386 0.804922 4.58932e-18)
(2.55416 0.804925 4.68909e-18)
(2.63278 0.804927 4.78442e-18)
(2.70973 0.80493 -4.46676e-18)
(2.78506 0.804932 -9.29178e-18)
(2.85881 0.804934 -2.20719e-19)
(2.93099 0.804935 -1.64721e-18)
(3.00165 0.804937 8.19844e-18)
(3.07082 0.804939 -6.40015e-18)
(3.13853 0.80494 -4.7435e-19)
(3.20481 0.804942 2.04817e-17)
(3.2697 0.804943 -4.31344e-18)
(3.33321 0.804944 1.30207e-17)
(3.39538 0.804946 1.84955e-17)
(0.412086 0.920539 -6.75069e-19)
(0.457391 0.920595 1.86648e-18)
(0.505396 0.920642 -5.78734e-19)
(0.556262 0.920684 1.08392e-19)
(0.610158 0.92072 1.44923e-19)
(0.667265 0.920752 1.47007e-18)
(0.727773 0.920781 1.19435e-18)
(0.791884 0.920806 -1.15571e-20)
(0.859813 0.920829 2.22493e-18)
(0.931787 0.92085 -2.34743e-18)
(1.00805 0.920869 -3.62529e-18)
(1.08885 0.920886 -3.53873e-18)
(1.17446 0.920901 -2.00549e-18)
(1.26516 0.920915 1.81425e-18)
(1.36127 0.920928 -1.88605e-18)
(1.4631 0.920939 1.20415e-18)
(1.57099 0.92095 -1.24125e-18)
(1.6853 0.92096 -5.85183e-18)
(1.80642 0.920969 -3.84633e-18)
(1.93475 0.920978 -2.10326e-18)
(2.04933 0.920984 3.29524e-19)
(2.14613 0.920989 -1.37537e-17)
(2.2409 0.920994 -5.58045e-18)
(2.33366 0.920998 -4.72147e-18)
(2.42447 0.921002 4.35187e-18)
(2.51337 0.921005 2.81629e-18)
(2.60039 0.921008 -4.08997e-18)
(2.68557 0.921011 0)
(2.76896 0.921013 0)
(2.85058 0.921016 -8.27488e-19)
(2.93049 0.921018 1.03102e-18)
(3.00871 0.92102 2.82817e-18)
(3.08527 0.921022 -4.5101e-20)
(3.16023 0.921024 7.75882e-18)
(3.23359 0.921025 7.86709e-18)
(3.30542 0.921027 -7.6651e-18)
(3.37572 0.921028 4.94055e-19)
(3.44454 0.92103 8.36822e-18)
(3.51191 0.921031 -7.87247e-18)
(3.57786 0.921032 3.78427e-18)
(0.413475 1.04414 0)
(0.461539 1.0442 5.58761e-19)
(0.512469 1.04426 -2.35607e-19)
(0.566434 1.0443 1.66185e-18)
(0.623614 1.04434 9.0585e-20)
(0.684201 1.04438 8.22921e-20)
(0.748397 1.04441 -1.24576e-18)
(0.816415 1.04443 1.91525e-18)
(0.888485 1.04446 -1.43759e-19)
(0.964845 1.04448 -2.2796e-19)
(1.04575 1.0445 -1.44523e-18)
(1.13148 1.04452 1.90015e-20)
(1.22231 1.04453 0)
(1.31854 1.04455 1.63038e-18)
(1.42051 1.04456 -7.36082e-20)
(1.52854 1.04457 6.16633e-18)
(1.64301 1.04458 -2.02446e-18)
(1.76429 1.0446 -3.87798e-18)
(1.89279 1.0446 -8.42686e-18)
(2.02894 1.04461 7.84408e-18)
(2.1505 1.04462 -2.04391e-18)
(2.25321 1.04463 -3.4504e-19)
(2.35375 1.04463 -1.16135e-18)
(2.45217 1.04463 -3.21586e-18)
(2.54851 1.04464 -3.29213e-19)
(2.64283 1.04464 -3.80301e-18)
(2.73515 1.04464 -3.23865e-18)
(2.82553 1.04465 6.65653e-18)
(2.914 1.04465 8.88779e-19)
(3.0006 1.04465 6.24257e-18)
(3.08537 1.04465 5.25333e-19)
(3.16836 1.04466 8.19652e-19)
(3.24959 1.04466 0)
(3.32911 1.04466 3.99604e-18)
(3.40695 1.04466 -9.28943e-18)
(3.48315 1.04466 -2.8719e-18)
(3.55774 1.04467 -8.80617e-18)
(3.63076 1.04467 -3.74202e-19)
(3.70223 1.04467 -9.68449e-18)
(3.7722 1.04467 5.3431e-18)
(0.414139 1.20385 4.83243e-19)
(0.46352 1.20384 7.10569e-19)
(0.515844 1.20384 1.29149e-19)
(0.571283 1.20383 -5.23102e-19)
(0.630025 1.20383 -2.21016e-18)
(0.692265 1.20383 -1.12264e-18)
(0.758211 1.20382 3.00776e-18)
(0.828083 1.20382 -1.2051e-19)
(0.902116 1.20382 8.69494e-19)
(0.980556 1.20382 4.26497e-18)
(1.06367 1.20381 2.25841e-18)
(1.15172 1.20381 0)
(1.24502 1.20381 1.94471e-20)
(1.34388 1.20381 -1.64005e-18)
(1.44862 1.20381 -3.61895e-18)
(1.55959 1.20381 -3.61303e-19)
(1.67717 1.20381 8.3994e-18)
(1.80175 1.20381 2.62502e-18)
(1.93375 1.2038 -2.09689e-19)
(2.0736 1.2038 -3.45723e-19)
(2.19846 1.2038 4.89588e-19)
(2.30396 1.2038 9.60547e-18)
(2.40724 1.2038 9.61959e-19)
(2.50833 1.2038 -4.17989e-19)
(2.6073 1.2038 6.02749e-18)
(2.70418 1.2038 6.97515e-18)
(2.79901 1.2038 -1.79122e-18)
(2.89185 1.2038 -6.89704e-18)
(2.98272 1.2038 -7.94225e-20)
(3.07168 1.2038 -1.15138e-17)
(3.15876 1.2038 4.56265e-19)
(3.244 1.2038 -4.19764e-18)
(3.32744 1.2038 -7.96064e-20)
(3.40912 1.2038 7.96445e-20)
(3.48908 1.2038 4.94187e-18)
(3.56735 1.2038 -4.75244e-18)
(3.64397 1.2038 -7.14204e-18)
(3.71897 1.2038 -5.90789e-18)
(3.79239 1.2038 1.21156e-17)
(3.86426 1.2038 3.81395e-18)
(0.41405 1.39726 -4.47109e-19)
(0.463254 1.39726 8.09754e-20)
(0.515389 1.39725 6.14868e-19)
(0.57063 1.39725 -5.06303e-19)
(0.629161 1.39724 4.31972e-19)
(0.691177 1.39724 5.69008e-20)
(0.756886 1.39724 2.85049e-18)
(0.826507 1.39724 -1.21175e-19)
(0.900274 1.39723 -1.04997e-19)
(0.978433 1.39723 -1.79576e-18)
(1.06124 1.39723 -1.49957e-18)
(1.14899 1.39723 -8.9154e-19)
(1.24195 1.39723 -1.22146e-18)
(1.34045 1.39723 3.37478e-19)
(1.44481 1.39722 -3.84484e-18)
(1.55539 1.39722 -3.40725e-18)
(1.67255 1.39722 4.95462e-18)
(1.79668 1.39722 -1.87968e-18)
(1.9282 1.39722 -2.20253e-18)
(2.06755 1.39722 -1.45752e-18)
(2.19196 1.39722 -3.93948e-20)
(2.29708 1.39722 -2.34685e-18)
(2.39999 1.39722 -6.22211e-18)
(2.50072 1.39722 -9.14885e-19)
(2.59933 1.39722 4.86259e-18)
(2.69586 1.39722 2.46059e-18)
(2.79036 1.39722 -6.53463e-18)
(2.88286 1.39722 6.42609e-18)
(2.9734 1.39722 1.32467e-17)
(3.06204 1.39722 3.59535e-18)
(3.14881 1.39722 -4.84589e-18)
(3.23374 1.39722 2.88371e-19)
(3.31689 1.39722 -1.17263e-17)
(3.39828 1.39722 -4.99312e-19)
(3.47795 1.39722 7.88469e-18)
(3.55594 1.39722 -8.5669e-18)
(3.63228 1.39721 7.34327e-19)
(3.70701 1.39721 -7.97745e-20)
(3.78016 1.39721 8.39573e-19)
(3.85177 1.39721 -1.02229e-17)
(0.413961 1.59068 -9.35855e-19)
(0.462987 1.59067 -5.66322e-20)
(0.514935 1.59067 6.55108e-19)
(0.569976 1.59066 -2.17748e-18)
(0.628296 1.59066 -2.41115e-20)
(0.690089 1.59066 8.09956e-19)
(0.755561 1.59066 2.60592e-18)
(0.824932 1.59065 -1.93602e-20)
(0.898432 1.59065 3.12488e-18)
(0.976309 1.59065 3.36325e-18)
(1.05882 1.59065 -2.05431e-18)
(1.14625 1.59064 0)
(1.23888 1.59064 -2.4147e-19)
(1.33702 1.59064 -2.18061e-18)
(1.44101 1.59064 1.7361e-18)
(1.55119 1.59064 1.71492e-18)
(1.66792 1.59064 -4.77119e-18)
(1.79161 1.59064 -2.53784e-18)
(1.92266 1.59064 -2.1544e-18)
(2.0615 1.59064 -3.78624e-18)
(2.18547 1.59064 7.06967e-18)
(2.29021 1.59063 9.3971e-18)
(2.39274 1.59063 5.4538e-18)
(2.49311 1.59063 5.03201e-19)
(2.59137 1.59063 1.93196e-18)
(2.68755 1.59063 4.18306e-18)
(2.7817 1.59063 -8.69496e-18)
(2.87387 1.59063 8.52469e-19)
(2.96409 1.59063 1.05715e-17)
(3.05241 1.59063 8.40583e-18)
(3.13886 1.59063 8.37785e-19)
(3.22349 1.59063 -4.63718e-18)
(3.30633 1.59063 3.8395e-19)
(3.38743 1.59063 8.33649e-18)
(3.46681 1.59063 -7.96816e-20)
(3.54452 1.59063 -4.2143e-19)
(3.62059 1.59063 1.25476e-17)
(3.69505 1.59063 8.86049e-19)
(3.76794 1.59063 5.19894e-18)
(3.83929 1.59063 -4.02729e-18)
(0.413871 1.7841 -4.50359e-19)
(0.462721 1.78409 6.42436e-19)
(0.51448 1.78409 1.40692e-18)
(0.569323 1.78408 -1.12643e-18)
(0.627432 1.78408 1.96043e-18)
(0.689001 1.78407 7.25256e-20)
(0.754236 1.78407 -1.32199e-18)
(0.823356 1.78407 -1.02041e-18)
(0.896591 1.78407 -9.90573e-19)
(0.974186 1.78406 -1.84491e-19)
(1.0564 1.78406 -1.94197e-20)
(1.14351 1.78406 -6.55219e-18)
(1.2358 1.78406 -8.95887e-19)
(1.33359 1.78406 -1.7511e-18)
(1.4372 1.78406 2.06795e-19)
(1.54698 1.78406 1.5708e-18)
(1.6633 1.78405 1.38364e-18)
(1.78653 1.78405 -2.44435e-18)
(1.91711 1.78405 2.22871e-19)
(2.05545 1.78405 5.82895e-18)
(2.17897 1.78405 2.5576e-18)
(2.28333 1.78405 2.49927e-18)
(2.38549 1.78405 4.84291e-18)
(2.4855 1.78405 -1.89955e-18)
(2.5834 1.78405 -5.34798e-18)
(2.67923 1.78405 -6.69996e-18)
(2.77304 1.78405 8.67305e-18)
(2.86488 1.78405 -1.0633e-17)
(2.95477 1.78405 -8.60475e-18)
(3.04277 1.78405 -1.64924e-18)
(3.12891 1.78405 -1.16378e-17)
(3.21324 1.78405 -7.9568e-20)
(3.29578 1.78405 7.96088e-20)
(3.37658 1.78405 1.17691e-17)
(3.45568 1.78405 2.63589e-19)
(3.5331 1.78405 4.03265e-18)
(3.6089 1.78405 -5.04129e-19)
(3.68309 1.78405 -3.95728e-18)
(3.75572 1.78405 -3.96445e-18)
(3.82681 1.78405 -3.65837e-18)
(0.413782 1.97751 -5.15203e-19)
(0.462454 1.97751 -3.61287e-19)
(0.514026 1.9775 -5.6638e-19)
(0.568669 1.9775 -1.78969e-19)
(0.626567 1.97749 1.90306e-18)
(0.687913 1.97749 -9.92211e-20)
(0.752911 1.97749 6.83908e-19)
(0.82178 1.97749 -2.51642e-18)
(0.894749 1.97748 0)
(0.972062 1.97748 -1.53953e-19)
(1.05398 1.97748 3.03343e-19)
(1.14077 1.97748 1.69032e-18)
(1.23273 1.97748 4.60885e-18)
(1.33016 1.97747 2.05397e-19)
(1.4334 1.97747 3.89572e-18)
(1.54278 1.97747 4.61694e-18)
(1.65867 1.97747 -4.70474e-19)
(1.78146 1.97747 1.56384e-18)
(1.91156 1.97747 2.47206e-18)
(2.0494 1.97747 4.49572e-18)
(2.17247 1.97747 -2.84766e-18)
(2.27645 1.97747 -2.84724e-18)
(2.37824 1.97747 1.754e-18)
(2.47789 1.97747 2.61998e-18)
(2.57543 1.97747 4.68705e-18)
(2.67092 1.97747 4.85655e-19)
(2.76439 1.97747 -1.64328e-18)
(2.85589 1.97747 1.278e-18)
(2.94546 1.97747 9.06446e-18)
(3.03314 1.97746 -6.6061e-18)
(3.11896 1.97746 -5.59801e-18)
(3.20298 1.97746 8.42036e-18)
(3.28523 1.97746 7.24633e-18)
(3.36573 1.97746 -4.61777e-18)
(3.44454 1.97746 -3.86031e-18)
(3.52169 1.97746 -4.79168e-18)
(3.59721 1.97746 7.40711e-19)
(3.67113 1.97746 -3.80125e-18)
(3.74349 1.97746 3.35696e-18)
(3.81433 1.97746 -2.38549e-19)
(0.413693 2.17093 -2.41348e-20)
(0.462188 2.17092 -6.91547e-19)
(0.513571 2.17092 7.55332e-19)
(0.568016 2.17091 -9.62398e-21)
(0.625703 2.17091 0)
(0.686825 2.17091 1.59673e-18)
(0.751587 2.1709 6.68174e-19)
(0.820204 2.1709 1.46551e-18)
(0.892907 2.1709 -1.20404e-18)
(0.969939 2.1709 0)
(1.05156 2.1709 -1.14204e-19)
(1.13803 2.17089 3.94356e-19)
(1.22966 2.17089 3.31085e-18)
(1.32674 2.17089 0)
(1.42959 2.17089 -9.04054e-19)
(1.53858 2.17089 3.06396e-18)
(1.65404 2.17089 4.33862e-19)
(1.77639 2.17089 1.90038e-18)
(1.90601 2.17089 -3.90259e-20)
(2.04335 2.17088 3.56628e-18)
(2.16597 2.17088 7.45695e-18)
(2.26958 2.17088 3.01577e-18)
(2.371 2.17088 5.02862e-19)
(2.47028 2.17088 -4.3353e-19)
(2.56746 2.17088 -7.53931e-18)
(2.6626 2.17088 4.26859e-18)
(2.75573 2.17088 -1.97043e-20)
(2.8469 2.17088 -5.76257e-18)
(2.93614 2.17088 8.55751e-18)
(3.0235 2.17088 0)
(3.10902 2.17088 -8.65131e-18)
(3.19273 2.17088 8.9895e-18)
(3.27467 2.17088 -7.96105e-20)
(3.35489 2.17088 7.7114e-18)
(3.43341 2.17088 -8.91633e-18)
(3.51027 2.17088 -4.39198e-18)
(3.58551 2.17088 -1.24889e-17)
(3.65917 2.17088 -1.23415e-17)
(3.73127 2.17088 -8.63016e-19)
(3.80184 2.17088 -1.32919e-17)
(0.413603 2.36435 -3.43176e-19)
(0.461921 2.36434 1.34832e-18)
(0.513117 2.36433 -2.03711e-18)
(0.567362 2.36433 1.57598e-18)
(0.624838 2.36433 -1.80164e-18)
(0.685737 2.36432 -1.72376e-18)
(0.750262 2.36432 -3.04499e-18)
(0.818628 2.36432 1.16538e-18)
(0.891065 2.36432 8.39711e-19)
(0.967815 2.36431 -2.49367e-19)
(1.04913 2.36431 1.21105e-18)
(1.13529 2.36431 1.72824e-19)
(1.22658 2.36431 -2.32333e-18)
(1.32331 2.36431 -4.46131e-18)
(1.42579 2.36431 -1.87531e-18)
(1.53437 2.3643 1.94619e-18)
(1.64942 2.3643 -1.1274e-19)
(1.77131 2.3643 0)
(1.90046 2.3643 0)
(2.0373 2.3643 1.90526e-18)
(2.15947 2.3643 3.93984e-20)
(2.2627 2.3643 1.06322e-18)
(2.36375 2.3643 -1.95025e-18)
(2.46267 2.3643 -2.25116e-18)
(2.5595 2.3643 -1.67365e-18)
(2.65429 2.3643 0)
(2.74708 2.3643 -4.33564e-19)
(2.83791 2.3643 4.19592e-19)
(2.92683 2.3643 1.50056e-17)
(3.01386 2.3643 -4.42414e-19)
(3.09907 2.3643 -3.60014e-19)
(3.18247 2.3643 -8.17386e-18)
(3.26412 2.3643 7.28895e-19)
(3.34404 2.3643 -5.13949e-19)
(3.42227 2.3643 5.13218e-19)
(3.49886 2.3643 -1.20089e-17)
(3.57382 2.3643 5.13015e-19)
(3.64721 2.3643 5.72024e-19)
(3.71904 2.3643 0)
(3.78936 2.3643 -8.58077e-18)
(0.413514 2.55776 -1.82392e-18)
(0.461654 2.55776 0)
(0.512663 2.55775 -2.3784e-19)
(0.566709 2.55775 3.75545e-20)
(0.623974 2.55774 -2.25961e-18)
(0.684649 2.55774 -1.58096e-20)
(0.748937 2.55774 -1.93433e-20)
(0.817053 2.55773 0)
(0.889224 2.55773 1.01349e-18)
(0.965692 2.55773 -8.80786e-19)
(1.04671 2.55773 -2.28138e-18)
(1.13256 2.55773 4.20346e-18)
(1.22351 2.55772 -1.24428e-18)
(1.31988 2.55772 8.78767e-19)
(1.42198 2.55772 -2.38108e-18)
(1.53017 2.55772 -3.90818e-19)
(1.64479 2.55772 -3.63531e-19)
(1.76624 2.55772 -6.92571e-19)
(1.89492 2.55772 -3.15458e-19)
(2.03125 2.55772 1.62678e-18)
(2.15297 2.55772 2.39007e-18)
(2.25582 2.55772 7.44619e-18)
(2.3565 2.55772 -3.95032e-20)
(2.45505 2.55772 7.37411e-18)
(2.55153 2.55771 2.04443e-18)
(2.64597 2.55771 4.73769e-18)
(2.73842 2.55771 2.1235e-18)
(2.82892 2.55771 7.21178e-18)
(2.91751 2.55771 -4.67117e-18)
(3.00423 2.55771 -7.92395e-19)
(3.08912 2.55771 -4.14272e-18)
(3.17222 2.55771 -8.13337e-18)
(3.25356 2.55771 1.73853e-18)
(3.33319 2.55771 2.50079e-18)
(3.41114 2.55771 8.08144e-18)
(3.48744 2.55771 -5.15935e-19)
(3.56213 2.55771 -6.67472e-19)
(3.63525 2.55771 -5.1068e-18)
(3.70682 2.55771 -7.98063e-20)
(3.77688 2.55771 7.0907e-19)
(0.413425 2.75118 -9.37606e-19)
(0.461388 2.75117 -3.67471e-19)
(0.512208 2.75117 -8.97519e-19)
(0.566055 2.75116 1.1239e-18)
(0.623109 2.75116 -6.02719e-19)
(0.683561 2.75116 -7.12358e-19)
(0.747612 2.75115 -1.39781e-18)
(0.815477 2.75115 -1.06626e-19)
(0.887382 2.75115 2.26208e-18)
(0.963568 2.75115 -8.25435e-19)
(1.04429 2.75114 -7.90982e-19)
(1.12982 2.75114 -2.46087e-18)
(1.22044 2.75114 3.46597e-18)
(1.31645 2.75114 4.36449e-19)
(1.41818 2.75114 -1.39897e-18)
(1.52596 2.75114 2.28872e-19)
(1.64017 2.75114 -1.53978e-18)
(1.76117 2.75114 -1.74432e-18)
(1.88937 2.75113 -2.30324e-19)
(2.0252 2.75113 2.7106e-18)
(2.14648 2.75113 2.08886e-18)
(2.24894 2.75113 -3.94548e-20)
(2.34925 2.75113 0)
(2.44744 2.75113 4.24319e-18)
(2.54356 2.75113 5.14166e-19)
(2.63766 2.75113 3.88924e-18)
(2.72977 2.75113 6.79434e-18)
(2.81993 2.75113 2.16607e-18)
(2.90819 2.75113 2.5951e-18)
(2.99459 2.75113 -4.48553e-19)
(3.07917 2.75113 4.66008e-19)
(3.16196 2.75113 -1.25077e-20)
(3.24301 2.75113 -1.31106e-17)
(3.32234 2.75113 -4.18224e-18)
(3.4 2.75113 -3.73542e-18)
(3.47602 2.75113 0)
(3.55044 2.75113 3.04564e-19)
(3.62329 2.75113 8.60274e-18)
(3.69459 2.75113 4.3073e-18)
(3.7644 2.75113 9.79803e-18)
(0.413336 2.94459 6.866e-20)
(0.461121 2.94459 0)
(0.511754 2.94458 8.21284e-19)
(0.565402 2.94458 5.73699e-19)
(0.622245 2.94458 -3.29729e-19)
(0.682473 2.94457 7.91245e-19)
(0.746287 2.94457 -1.09998e-19)
(0.813901 2.94457 -2.33184e-18)
(0.88554 2.94456 -1.09914e-19)
(0.961445 2.94456 -1.17709e-18)
(1.04187 2.94456 -1.24178e-19)
(1.12708 2.94456 -2.8985e-18)
(1.21736 2.94456 -3.64535e-18)
(1.31302 2.94456 -2.24248e-18)
(1.41437 2.94455 1.69823e-18)
(1.52176 2.94455 -1.98487e-18)
(1.63554 2.94455 -3.35138e-18)
(1.75609 2.94455 4.91417e-19)
(1.88382 2.94455 5.16545e-18)
(2.01915 2.94455 2.16092e-18)
(2.13998 2.94455 2.80437e-18)
(2.24207 2.94455 0)
(2.342 2.94455 -5.19345e-18)
(2.43983 2.94455 1.51787e-19)
(2.5356 2.94455 -1.75653e-18)
(2.62934 2.94455 -1.76707e-20)
(2.72111 2.94455 -2.54833e-18)
(2.81094 2.94455 -8.94779e-18)
(2.89888 2.94455 1.66567e-18)
(2.98496 2.94455 -4.60709e-18)
(3.06922 2.94455 2.39476e-18)
(3.15171 2.94455 4.57087e-19)
(3.23245 2.94455 7.33096e-19)
(3.3115 2.94455 -1.95239e-19)
(3.38887 2.94455 7.96871e-20)
(3.46461 2.94454 -1.28871e-17)
(3.53875 2.94454 -4.42612e-18)
(3.61132 2.94454 -1.54407e-18)
(3.68237 2.94454 1.71011e-17)
(3.75191 2.94454 -6.33425e-19)
(0.413246 3.13801 -8.93997e-20)
(0.460855 3.13801 6.94181e-19)
(0.511299 3.138 -6.40155e-19)
(0.564748 3.138 -9.52401e-19)
(0.621381 3.13799 -9.64615e-21)
(0.681385 3.13799 -6.22479e-20)
(0.744962 3.13799 -1.36366e-18)
(0.812325 3.13798 -1.0007e-18)
(0.883699 3.13798 -2.23182e-18)
(0.959321 3.13798 -9.32791e-19)
(1.03945 3.13798 -5.67551e-18)
(1.12434 3.13798 -4.11881e-18)
(1.21429 3.13797 2.90235e-18)
(1.30959 3.13797 -7.04333e-19)
(1.41057 3.13797 4.93225e-18)
(1.51756 3.13797 -3.21114e-18)
(1.63091 3.13797 1.36812e-18)
(1.75102 3.13797 8.5081e-18)
(1.87827 3.13797 1.14536e-17)
(2.0131 3.13797 -4.17469e-18)
(2.13348 3.13797 -7.93874e-18)
(2.23519 3.13796 2.3056e-19)
(2.33475 3.13796 5.53292e-18)
(2.43222 3.13796 -9.99455e-18)
(2.52763 3.13796 -1.99173e-18)
(2.62103 3.13796 -5.25467e-18)
(2.71245 3.13796 2.21977e-18)
(2.80195 3.13796 2.19376e-18)
(2.88956 3.13796 8.53259e-19)
(2.97532 3.13796 -1.64029e-20)
(3.05928 3.13796 1.0989e-17)
(3.14145 3.13796 -8.84055e-18)
(3.2219 3.13796 1.63407e-18)
(3.30065 3.13796 5.73143e-18)
(3.37773 3.13796 6.14989e-18)
(3.45319 3.13796 -4.45443e-18)
(3.52706 3.13796 3.56409e-18)
(3.59936 3.13796 3.79911e-18)
(3.67014 3.13796 3.51508e-18)
(3.73943 3.13796 -8.26756e-18)
(0.413157 3.33143 -4.39712e-19)
(0.460588 3.33142 1.1167e-18)
(0.510845 3.33142 -1.48405e-18)
(0.564095 3.33141 -1.65935e-18)
(0.620516 3.33141 -1.40992e-18)
(0.680297 3.33141 8.37317e-19)
(0.743638 3.3314 1.38357e-19)
(0.810749 3.3314 8.20517e-19)
(0.881857 3.3314 1.13196e-18)
(0.957198 3.3314 -1.94111e-20)
(1.03702 3.33139 -2.60088e-18)
(1.1216 3.33139 -1.61306e-18)
(1.21122 3.33139 1.94562e-20)
(1.30616 3.33139 -3.26087e-18)
(1.40676 3.33139 2.85224e-18)
(1.51335 3.33139 -1.81029e-18)
(1.62629 3.33139 1.72015e-18)
(1.74595 3.33138 2.68037e-18)
(1.87273 3.33138 4.33769e-18)
(2.00705 3.33138 -4.10823e-19)
(2.12698 3.33138 5.21509e-19)
(2.22831 3.33138 -3.40625e-18)
(2.32751 3.33138 -4.87455e-18)
(2.42461 3.33138 3.95498e-20)
(2.51966 3.33138 -1.9144e-19)
(2.61271 3.33138 -4.33519e-18)
(2.7038 3.33138 -2.88547e-19)
(2.79296 3.33138 4.34201e-18)
(2.88025 3.33138 0)
(2.96569 3.33138 5.37489e-19)