/*--------------------------------*- C++ -*----------------------------------*\
| =========                 |                                                 |
| \\      /  F ield         | OpenFOAM: The Open Source CFD Toolbox           |
|  \\    /   O peration     | Version:  2312                                  |
|   \\  /    A nd           | Website:  www.openfoam.com                      |
|    \\/     M anipulation  |                                                 |
\*---------------------------------------------------------------------------*/
FoamFile
{
    version     2.0;
    format      ascii;
    arch        "LSB;label=32;scalar=64";
    class       volVectorField;
    location    "constant";
    object      C;
}
// * * * * * * * * * * * * * * * * * * * * * * * * * * * * * * * * * * * * * //

dimensions      [0 1 0 0 0 0 0];

internalField   nonuniform List<vector> 
3780
(
(0.513758 0.0435789 -3.34283e-19)
(0.541851 0.0435992 -1.84191e-18)
(0.571618 0.0436185 7.86285e-20)
(0.603157 0.0436369 1.49267e-18)
(0.636575 0.0436544 -4.37426e-19)
(0.671982 0.0436711 -7.65646e-19)
(0.709497 0.0436869 -2.35099e-20)
(0.749247 0.043702 -1.04749e-19)
(0.791362 0.0437162 0)
(0.835986 0.0437298 1.04217e-18)
(0.883266 0.0437427 1.83884e-20)
(0.933361 0.0437549 -2.38497e-18)
(0.986438 0.0437665 -1.54206e-19)
(1.04268 0.0437775 -3.82265e-18)
(1.10226 0.0437879 2.20099e-18)
(1.16539 0.0437978 1.83091e-20)
(1.23228 0.0438072 -8.65895e-19)
(1.30316 0.0438161 -1.60697e-18)
(1.37825 0.0438245 1.40845e-18)
(1.45781 0.0438325 -5.13935e-18)
(1.52889 0.0438389 0)
(1.58891 0.0438439 3.30861e-18)
(1.64767 0.0438484 8.36267e-18)
(1.70519 0.0438525 4.76595e-18)
(1.76149 0.0438563 3.09204e-18)
(1.81661 0.0438597 1.64515e-18)
(1.87056 0.0438629 3.03936e-18)
(1.92337 0.0438659 6.15639e-18)
(1.97507 0.0438686 -8.6837e-18)
(2.02568 0.0438712 -4.11736e-18)
(2.07522 0.0438735 3.69468e-20)
(2.12372 0.0438757 1.56655e-18)
(2.17119 0.0438778 -3.69682e-20)
(2.21766 0.0438798 7.63772e-18)
(2.26315 0.0438816 2.31023e-18)
(2.30768 0.0438833 7.43111e-18)
(2.35127 0.0438849 -6.14172e-18)
(2.39394 0.0438864 4.5827e-18)
(2.43571 0.0438879 3.85032e-19)
(2.47659 0.0438892 3.44229e-18)
(0.514559 0.132748 -1.15389e-19)
(0.544276 0.132771 -2.16183e-18)
(0.575763 0.132793 -4.81488e-19)
(0.609124 0.132814 3.02077e-19)
(0.644472 0.132833 1.21288e-19)
(0.681925 0.132851 -5.65053e-19)
(0.721608 0.132869 9.70325e-21)
(0.763654 0.132885 2.34548e-18)
(0.808203 0.132901 1.99709e-21)
(0.855404 0.132915 1.79623e-19)
(0.905416 0.132929 1.68653e-19)
(0.958405 0.132943 -1.36672e-18)
(1.01455 0.132955 -4.19609e-19)
(1.07403 0.132967 -1.27694e-18)
(1.13706 0.132978 -4.02276e-18)
(1.20384 0.132988 3.96655e-19)
(1.2746 0.132998 -1.61084e-18)
(1.34957 0.133008 -1.42678e-18)
(1.429 0.133017 -3.69149e-18)
(1.51315 0.133025 -5.56472e-18)
(1.58833 0.133032 1.60641e-18)
(1.65182 0.133037 8.27196e-18)
(1.71398 0.133042 -5.96743e-20)
(1.77482 0.133046 3.36399e-18)
(1.83437 0.13305 9.302e-18)
(1.89267 0.133054 2.53679e-19)
(1.94974 0.133057 3.02496e-18)
(2.00561 0.13306 -4.0351e-18)
(2.0603 0.133063 5.19907e-18)
(2.11383 0.133066 2.99304e-18)
(2.16623 0.133068 2.57934e-19)
(2.21753 0.13307 2.39255e-18)
(2.26774 0.133073 -5.84783e-18)
(2.3169 0.133075 -3.42439e-18)
(2.36502 0.133076 -2.61815e-18)
(2.41212 0.133078 -4.81864e-18)
(2.45822 0.13308 -2.13517e-18)
(2.50336 0.133082 2.51834e-18)
(2.54754 0.133083 3.27505e-18)
(2.59079 0.133084 -2.87897e-18)
(0.515414 0.227718 1.51284e-18)
(0.54686 0.227744 -7.22176e-19)
(0.580178 0.227768 -1.73696e-19)
(0.61548 0.227791 -8.71525e-19)
(0.652884 0.227812 -1.14698e-18)
(0.692515 0.227833 -1.32044e-18)
(0.734507 0.227852 -1.97383e-18)
(0.778998 0.22787 1.75236e-18)
(0.826139 0.227887 9.12643e-19)
(0.876086 0.227903 -1.56167e-18)
(0.929007 0.227918 -7.6607e-19)
(0.985078 0.227932 3.67634e-18)
(1.04449 0.227945 9.74367e-19)
(1.10743 0.227958 -4.67784e-19)
(1.17413 0.22797 -2.35149e-19)
(1.24479 0.227981 -1.42849e-18)
(1.31966 0.227991 2.50817e-18)
(1.39899 0.228001 -1.69285e-19)
(1.48304 0.228011 1.19803e-18)
(1.5721 0.228019 0)
(1.65165 0.228026 3.53484e-18)
(1.71883 0.228032 -1.18521e-18)
(1.7846 0.228037 2.21372e-18)
(1.84898 0.228041 2.50374e-18)
(1.912 0.228046 3.86901e-20)
(1.97369 0.228049 4.57521e-18)
(2.03408 0.228053 4.34956e-18)
(2.09319 0.228056 -1.33669e-17)
(2.15106 0.228059 4.31682e-19)
(2.20771 0.228062 -2.32773e-19)
(2.26316 0.228064 4.91167e-18)
(2.31744 0.228067 -1.65817e-18)
(2.37057 0.228069 1.06633e-17)
(2.42259 0.228071 -3.8812e-20)
(2.4735 0.228073 -9.49e-18)
(2.52335 0.228075 2.31181e-18)
(2.57213 0.228077 4.21901e-18)
(2.61989 0.228078 6.08629e-19)
(2.66665 0.22808 3.77722e-18)
(2.71241 0.228081 9.39856e-18)
(0.516326 0.328864 -9.53073e-19)
(0.549612 0.328893 -9.5847e-20)
(0.584881 0.32892 2.37626e-19)
(0.622249 0.328946 -6.58239e-19)
(0.661844 0.32897 -9.70037e-21)
(0.703795 0.328992 -6.19978e-19)
(0.748245 0.329013 9.06875e-19)
(0.795342 0.329033 8.24575e-19)
(0.845242 0.329051 -1.47253e-19)
(0.898114 0.329068 -4.84366e-19)
(0.954133 0.329084 -1.26982e-18)
(1.01349 0.3291 2.0058e-18)
(1.07638 0.329114 -1.87573e-18)
(1.14301 0.329127 -7.92155e-19)
(1.21361 0.32914 -2.9098e-18)
(1.28841 0.329152 -4.12171e-18)
(1.36766 0.329163 -1.29741e-18)
(1.45164 0.329173 -1.36579e-18)
(1.54061 0.329183 5.71178e-18)
(1.63488 0.329193 0)
(1.71908 0.3292 -2.00831e-18)
(1.79019 0.329206 -2.68456e-19)
(1.85981 0.329211 -2.01628e-19)
(1.92796 0.329216 2.27574e-19)
(1.99467 0.32922 3.86636e-20)
(2.05997 0.329224 -4.39649e-18)
(2.1239 0.329228 -5.72961e-18)
(2.18647 0.329231 -1.83331e-18)
(2.24773 0.329234 -1.39646e-18)
(2.30769 0.329237 -2.30385e-18)
(2.36639 0.329239 3.87574e-20)
(2.42385 0.329242 -1.80111e-18)
(2.48009 0.329244 7.38032e-18)
(2.53515 0.329246 -1.37743e-18)
(2.58905 0.329248 1.19037e-18)
(2.64181 0.32925 0)
(2.69346 0.329252 -1.80332e-18)
(2.74401 0.329254 1.61229e-18)
(2.7935 0.329255 -6.43757e-19)
(2.84194 0.329257 8.5694e-18)
(0.517298 0.436589 -8.22774e-19)
(0.552544 0.436622 0)
(0.58989 0.436653 -5.63105e-19)
(0.62946 0.436681 -5.21105e-19)
(0.671387 0.436707 4.06605e-19)
(0.71581 0.436732 1.87465e-18)
(0.762878 0.436755 -9.93206e-19)
(0.812749 0.436776 6.98741e-19)
(0.865589 0.436796 1.53611e-19)
(0.921575 0.436815 -1.19112e-18)
(0.980894 0.436832 -9.32088e-20)
(1.04375 0.436848 1.09618e-18)
(1.11034 0.436864 -7.46914e-19)
(1.1809 0.436878 -1.60247e-18)
(1.25565 0.436891 -9.07312e-19)
(1.33486 0.436904 -1.9173e-20)
(1.41879 0.436916 2.45164e-18)
(1.5077 0.436927 5.04695e-18)
(1.60192 0.436937 -7.91773e-18)
(1.70174 0.436947 -4.30259e-18)
(1.7909 0.436954 1.48165e-19)
(1.8662 0.43696 6.88987e-18)
(1.93992 0.436966 -5.37067e-18)
(2.01208 0.436971 -4.82744e-18)
(2.08272 0.436975 1.36061e-18)
(2.15187 0.436979 2.83935e-18)
(2.21956 0.436983 8.37689e-18)
(2.28582 0.436987 -1.92949e-18)
(2.35069 0.43699 -1.54466e-18)
(2.41418 0.436993 -1.11298e-17)
(2.47634 0.436995 -8.02561e-18)
(2.53718 0.436998 4.13365e-19)
(2.59674 0.437 -3.08453e-18)
(2.65504 0.437003 -3.00437e-18)
(2.71211 0.437005 -3.19198e-18)
(2.76798 0.437007 6.95627e-18)
(2.82267 0.437009 -3.00819e-18)
(2.8762 0.43701 -7.69911e-20)
(2.9286 0.437012 -6.54358e-18)
(2.9799 0.437014 -1.97483e-17)
(0.518334 0.551321 7.27896e-19)
(0.555669 0.551358 -1.1601e-18)
(0.595227 0.551392 -1.27918e-18)
(0.637141 0.551424 -7.33559e-19)
(0.681552 0.551453 -5.32636e-19)
(0.728607 0.55148 -1.66562e-19)
(0.778464 0.551505 1.46361e-18)
(0.831289 0.551528 0)
(0.88726 0.55155 -1.361e-18)
(0.946563 0.55157 0)
(1.0094 0.551588 1.51587e-18)
(1.07597 0.551606 -1.55897e-18)
(1.14651 0.551622 2.96905e-19)
(1.22125 0.551637 -1.25858e-18)
(1.30043 0.551651 1.81211e-18)
(1.38434 0.551665 4.05169e-19)
(1.47323 0.551677 -3.46413e-18)
(1.56742 0.551689 1.90621e-19)
(1.66721 0.551699 -5.63959e-18)
(1.77295 0.55171 -4.54006e-18)
(1.86739 0.551718 -3.735e-18)
(1.94715 0.551724 2.99556e-18)
(2.02524 0.55173 -4.60708e-18)
(2.10167 0.551735 -6.74351e-18)
(2.1765 0.551739 0)
(2.24974 0.551744 3.9402e-19)
(2.32144 0.551747 8.38407e-18)
(2.39163 0.551751 3.0138e-19)
(2.46034 0.551754 3.86856e-20)
(2.5276 0.551757 3.01476e-18)
(2.59343 0.55176 4.61322e-18)
(2.65788 0.551763 2.92407e-18)
(2.72097 0.551765 1.04936e-17)
(2.78273 0.551768 -2.61249e-18)
(2.84318 0.55177 5.3728e-18)
(2.90236 0.551772 2.27285e-18)
(2.96028 0.551774 7.8155e-18)
(3.01699 0.551776 2.17586e-18)
(3.0725 0.551777 1.03739e-17)
(3.12683 0.551779 2.96844e-18)
(0.519439 0.673516 -4.31183e-19)
(0.558997 0.673557 4.71726e-19)
(0.600912 0.673595 0)
(0.645323 0.67363 2.76324e-18)
(0.692379 0.673662 2.32046e-18)
(0.742237 0.673692 -1.92856e-20)
(0.795064 0.673719 1.42962e-19)
(0.851036 0.673744 2.0761e-18)
(0.910341 0.673768 2.86824e-18)
(0.973177 0.673789 1.92097e-20)
(1.03975 0.673809 1.96127e-18)
(1.1103 0.673828 1.14982e-18)
(1.18504 0.673845 3.31032e-18)
(1.26423 0.673861 -1.90968e-19)
(1.34813 0.673876 -2.72307e-18)
(1.43703 0.67389 4.65711e-18)
(1.53122 0.673903 9.23861e-21)
(1.63102 0.673915 -2.60234e-18)
(1.73676 0.673927 0)
(1.84879 0.673937 5.97306e-18)
(1.94885 0.673946 -8.97206e-18)
(2.03337 0.673952 7.66052e-18)
(2.1161 0.673958 1.83552e-18)
(2.19709 0.673963 -2.29508e-18)
(2.27637 0.673968 -4.75014e-18)
(2.35398 0.673973 6.81916e-18)
(2.42996 0.673977 -2.30614e-18)
(2.50432 0.67398 4.42082e-18)
(2.57712 0.673984 1.87799e-18)
(2.64839 0.673987 -3.91673e-19)
(2.71815 0.67399 4.62855e-18)
(2.78643 0.673993 -5.12776e-18)
(2.85328 0.673995 3.07208e-19)
(2.91872 0.673998 1.11327e-17)
(2.98277 0.674 9.76013e-18)
(3.04547 0.674002 -3.73588e-18)
(3.10685 0.674004 -4.73429e-18)
(3.16693 0.674006 -6.47026e-18)
(3.22575 0.674008 4.58738e-18)
(3.28332 0.674009 0)
(0.520617 0.803658 -2.3443e-20)
(0.562544 0.803705 -9.67732e-21)
(0.606968 0.803747 -3.51253e-19)
(0.654038 0.803786 1.60154e-18)
(0.703911 0.803821 -2.76446e-18)
(0.756755 0.803853 0)
(0.812744 0.803883 4.77007e-19)
(0.872068 0.80391 1.92155e-20)
(0.934924 0.803936 -9.10213e-19)
(1.00152 0.803959 -1.91579e-19)
(1.07209 0.80398 1.12176e-19)
(1.14685 0.804 2.46658e-18)
(1.22607 0.804018 -1.13373e-18)
(1.31 0.804035 7.38102e-20)
(1.39893 0.804051 -6.31012e-18)
(1.49315 0.804066 -5.51887e-19)
(1.59298 0.804079 -2.17334e-18)
(1.69876 0.804092 5.62952e-18)
(1.81083 0.804104 3.81694e-20)
(1.92957 0.804115 1.59929e-18)
(2.03561 0.804124 -8.74524e-18)
(2.12519 0.804131 -2.04806e-18)
(2.21288 0.804137 6.03527e-19)
(2.29872 0.804142 -1.97597e-18)
(2.38275 0.804147 3.93335e-18)
(2.465 0.804152 1.32374e-17)
(2.54553 0.804156 -1.00337e-17)
(2.62435 0.80416 -3.40809e-19)
(2.70151 0.804163 -2.05764e-18)
(2.77704 0.804167 -7.81009e-18)
(2.85097 0.80417 1.84983e-18)
(2.92335 0.804173 4.23977e-18)
(2.9942 0.804175 -2.7326e-18)
(3.06355 0.804178 8.46653e-18)
(3.13144 0.80418 2.8552e-19)
(3.1979 0.804182 6.93581e-18)
(3.26295 0.804184 1.13968e-17)
(3.32663 0.804186 7.81511e-18)
(3.38897 0.804188 0)
(3.44999 0.80419 -7.75421e-20)
(0.521874 0.942265 -2.61316e-18)
(0.566323 0.942318 -1.64315e-18)
(0.613419 0.942365 -8.73745e-19)
(0.663321 0.942408 -1.88957e-18)
(0.716195 0.942447 -1.83709e-18)
(0.772217 0.942482 2.7957e-19)
(0.831576 0.942514 1.00422e-18)
(0.89447 0.942544 3.11198e-18)
(0.961108 0.942571 -1.15547e-18)
(1.03171 0.942595 2.31892e-18)
(1.10652 0.942618 -3.56639e-18)
(1.18579 0.942639 1.83751e-19)
(1.26977 0.942659 -1.89634e-18)
(1.35875 0.942677 2.13606e-19)
(1.45303 0.942693 -2.75716e-18)
(1.55292 0.942709 4.54598e-18)
(1.65876 0.942723 2.00652e-18)
(1.7709 0.942736 7.63279e-18)
(1.88972 0.942749 1.94421e-18)
(2.0156 0.94276 4.41377e-18)
(2.12802 0.94277 -5.54456e-18)
(2.22299 0.942777 3.65465e-18)
(2.31595 0.942783 -1.70035e-18)
(2.40696 0.942789 1.70985e-18)
(2.49604 0.942794 8.05927e-19)
(2.58325 0.942798 1.81195e-18)
(2.66861 0.942803 4.54973e-19)
(2.75218 0.942807 6.04501e-18)
(2.83398 0.94281 -6.27851e-18)
(2.91405 0.942814 4.05288e-18)
(2.99244 0.942817 -1.72358e-17)
(3.06917 0.94282 -9.57864e-18)
(3.14428 0.942822 -2.47827e-18)
(3.21781 0.942825 4.26367e-18)
(3.28978 0.942827 -2.52119e-18)
(3.36024 0.94283 6.56052e-18)
(3.4292 0.942832 2.60053e-18)
(3.49672 0.942834 -4.96595e-19)
(3.5628 0.942835 2.61212e-18)
(3.62749 0.942837 -3.19796e-18)
(0.523214 1.08989 0)
(0.570349 1.08995 -1.93199e-18)
(0.620292 1.09 -1.54353e-18)
(0.673209 1.09005 -2.37151e-18)
(0.729279 1.09009 0)
(0.788687 1.09013 -2.50413e-19)
(0.851634 1.09016 -2.4638e-18)
(0.918329 1.09019 6.94155e-19)
(0.988995 1.09022 1.20225e-18)
(1.06387 1.09025 1.03805e-18)
(1.1432 1.09027 1.82348e-18)
(1.22725 1.0903 -1.78887e-18)
(1.31631 1.09032 -2.67427e-18)
(1.41067 1.09034 -7.9376e-18)
(1.51065 1.09035 -3.28498e-18)
(1.61658 1.09037 1.97399e-18)
(1.72882 1.09038 0)
(1.84774 1.0904 1.50533e-18)
(1.97373 1.09041 8.39105e-19)
(2.10723 1.09042 4.92685e-18)
(2.22644 1.09043 -6.73867e-18)
(2.32715 1.09044 -1.03578e-18)
(2.42573 1.09045 -2.91326e-18)
(2.52223 1.09045 -2.34314e-18)
(2.6167 1.09046 -2.78113e-18)
(2.70918 1.09046 3.43705e-18)
(2.7997 1.09047 2.75121e-18)
(2.88832 1.09047 -8.43207e-18)
(2.97507 1.09048 3.15673e-18)
(3.05998 1.09048 7.86076e-18)
(3.1431 1.09048 2.55427e-18)
(3.22447 1.09049 2.69776e-18)
(3.30412 1.09049 1.91002e-18)
(3.3821 1.09049 0)
(3.45842 1.09049 5.79475e-19)
(3.53313 1.0905 -5.21505e-19)
(3.60627 1.0905 -8.56933e-18)
(3.67786 1.0905 1.17165e-17)
(3.74794 1.0905 -3.43855e-18)
(3.81655 1.0905 1.17012e-17)
(0.524644 1.24711 6.49369e-19)
(0.574639 1.24718 -1.43448e-18)
(0.627613 1.24724 1.41986e-19)
(0.683742 1.24729 5.15309e-19)
(0.743215 1.24734 1.12999e-18)
(0.80623 1.24738 0)
(0.872997 1.24742 -4.44281e-19)
(0.943741 1.24745 -2.89479e-18)
(1.0187 1.24748 0)
(1.09812 1.24751 -1.03238e-18)
(1.18226 1.24754 -1.16953e-19)
(1.27142 1.24756 -1.27705e-18)
(1.36589 1.24758 2.0318e-18)
(1.46597 1.2476 2.1166e-18)
(1.57202 1.24762 -3.8115e-20)
(1.68438 1.24764 0)
(1.80343 1.24765 4.5251e-18)
(1.92957 1.24767 -1.27602e-18)
(2.06322 1.24768 -2.85874e-18)
(2.20482 1.24769 -9.15858e-19)
(2.33126 1.2477 -8.25867e-18)
(2.43808 1.24771 5.58532e-18)
(2.54265 1.24772 5.26687e-18)
(2.64501 1.24772 5.75584e-21)
(2.74521 1.24773 9.5346e-18)
(2.8433 1.24773 8.86667e-18)
(2.93932 1.24774 3.38105e-19)
(3.03332 1.24774 -9.91815e-18)
(3.12533 1.24774 6.62347e-18)
(3.2154 1.24775 3.7381e-19)
(3.30357 1.24775 -3.2518e-19)
(3.38988 1.24775 5.9757e-18)
(3.47437 1.24776 0)
(3.55707 1.24776 -1.39921e-17)
(3.63803 1.24776 -8.73436e-19)
(3.71728 1.24777 7.73693e-20)
(3.79485 1.24777 -1.26578e-17)
(3.87079 1.24777 0)
(3.94513 1.24777 -9.10236e-18)
(4.0179 1.24777 -1.37005e-17)
(0.526169 1.41456 0)
(0.57921 1.41464 5.57704e-19)
(0.635412 1.4147 -4.25015e-19)
(0.694962 1.41476 4.48392e-19)
(0.758059 1.41481 6.34337e-19)
(0.824914 1.41486 6.68207e-19)
(0.895751 1.4149 -9.1628e-20)
(0.970807 1.41493 5.18794e-18)
(1.05033 1.41497 -1.84788e-18)
(1.13459 1.415 -1.14421e-18)
(1.22387 1.41503 1.61093e-18)
(1.31846 1.41505 1.66409e-19)
(1.41868 1.41507 -2.06834e-19)
(1.52487 1.41509 -3.78715e-18)
(1.63739 1.41511 1.58289e-18)
(1.7566 1.41513 -3.80629e-20)
(1.8829 1.41515 1.08808e-18)
(2.01673 1.41516 -1.47331e-19)
(2.15852 1.41518 1.35219e-18)
(2.30875 1.41519 -6.83099e-19)
(2.4429 1.4152 6.61499e-18)
(2.55623 1.41521 -6.83506e-18)
(2.66717 1.41521 -1.79137e-18)
(2.77577 1.41522 1.86476e-19)
(2.88208 1.41523 8.66803e-18)
(2.98615 1.41523 8.06695e-18)
(3.08803 1.41524 5.78089e-18)
(3.18775 1.41524 -4.47838e-18)
(3.28537 1.41524 -3.65453e-19)
(3.38093 1.41525 1.16302e-17)
(3.47447 1.41525 4.10367e-18)
(3.56604 1.41525 -2.77249e-18)
(3.65568 1.41526 1.44566e-17)
(3.74343 1.41526 7.27647e-18)
(3.82932 1.41526 -1.22216e-17)
(3.9134 1.41526 -3.60702e-18)
(3.9957 1.41527 -1.14331e-17)
(4.07627 1.41527 1.14484e-17)
(4.15514 1.41527 1.52494e-17)
(4.23234 1.41527 -3.58407e-19)
(0.527142 1.60107 -1.11674e-18)
(0.582121 1.60109 -1.27201e-18)
(0.640373 1.60111 -1.4061e-19)
(0.702095 1.60112 7.75158e-19)
(0.767492 1.60114 5.08766e-19)
(0.836783 1.60115 1.05678e-18)
(0.910199 1.60116 1.93035e-20)
(0.987987 1.60117 -2.34237e-19)
(1.0704 1.60118 -4.30381e-19)
(1.15773 1.60119 1.14105e-19)
(1.25025 1.6012 1.54942e-18)
(1.34828 1.6012 -2.30866e-19)
(1.45215 1.60121 5.35992e-18)
(1.5622 1.60122 2.2178e-19)
(1.6788 1.60122 7.03425e-19)
(1.80235 1.60123 -5.85779e-18)
(1.93324 1.60123 7.7259e-19)
(2.07193 1.60123 1.72497e-18)
(2.21888 1.60124 -8.28726e-18)
(2.37457 1.60124 6.43909e-19)
(2.51358 1.60124 8.17986e-18)
(2.63103 1.60125 0)
(2.746 1.60125 -3.6929e-18)
(2.85855 1.60125 -6.82787e-18)
(2.96872 1.60125 0)
(3.07657 1.60125 4.29238e-19)
(3.18215 1.60125 -1.0716e-17)
(3.2855 1.60126 2.75011e-18)
(3.38666 1.60126 3.68937e-18)
(3.48569 1.60126 6.76277e-18)
(3.58264 1.60126 3.2887e-18)
(3.67753 1.60126 -6.669e-19)
(3.77042 1.60126 3.6261e-18)
(3.86136 1.60126 1.23916e-18)
(3.95037 1.60126 7.52321e-18)
(4.03751 1.60126 2.74732e-18)
(4.1228 1.60126 6.36009e-18)
(4.2063 1.60126 5.25938e-19)
(4.28803 1.60126 -5.91951e-18)
(4.36803 1.60126 -2.88905e-18)
(0.527528 1.8027 2.39377e-20)
(0.583277 1.80273 0)
(0.642345 1.80274 -1.21437e-19)
(0.704932 1.80276 1.1131e-19)
(0.771245 1.80277 1.0106e-18)
(0.841506 1.80279 -9.88763e-20)
(0.915951 1.8028 2.9223e-18)
(0.994828 1.80281 -1.59019e-18)
(1.0784 1.80282 7.86457e-19)
(1.16695 1.80282 2.14456e-18)
(1.26077 1.80283 -5.23566e-18)
(1.36017 1.80284 3.87987e-18)
(1.4655 1.80285 -3.76399e-19)
(1.57709 1.80285 -6.08767e-18)
(1.69532 1.80286 -1.75127e-18)
(1.8206 1.80286 1.9043e-18)
(1.95333 1.80287 -9.77464e-18)
(2.09396 1.80287 -3.79829e-19)
(2.24296 1.80287 -3.21406e-18)
(2.40084 1.80288 1.1346e-17)
(2.5418 1.80288 1.93665e-18)
(2.66089 1.80288 -1.93135e-20)
(2.77747 1.80288 -6.36716e-18)
(2.8916 1.80288 2.36093e-18)
(3.00331 1.80289 3.01282e-18)
(3.11268 1.80289 -9.14122e-18)
(3.21973 1.80289 4.59174e-19)
(3.32452 1.80289 3.43662e-18)
(3.42711 1.80289 -2.56964e-18)
(3.52753 1.80289 2.27127e-18)
(3.62583 1.80289 6.28039e-18)
(3.72205 1.80289 -1.02688e-17)
(3.81625 1.80289 2.88559e-18)
(3.90845 1.80289 2.23245e-18)
(3.99871 1.8029 3.43982e-18)
(4.08707 1.8029 8.29459e-18)
(4.17356 1.8029 1.28233e-17)
(4.25822 1.8029 2.87723e-18)
(4.3411 1.8029 -3.26481e-18)
(4.42223 1.8029 1.84139e-17)
(0.527915 2.00434 5.77946e-19)
(0.584433 2.00436 -2.73352e-18)
(0.644318 2.00438 -8.8947e-19)
(0.707768 2.0044 -8.50238e-19)
(0.774997 2.00441 -4.99753e-18)
(0.846229 2.00442 2.16425e-18)
(0.921702 2.00443 1.74937e-19)
(1.00167 2.00444 0)
(1.0864 2.00445 -2.59649e-18)
(1.17617 2.00446 -1.70948e-18)
(1.27128 2.00447 -2.25228e-18)
(1.37206 2.00447 -1.95846e-19)
(1.47884 2.00448 -1.76891e-18)
(1.59197 2.00449 7.03313e-18)
(1.71184 2.00449 1.44348e-18)
(1.83885 2.0045 -4.46266e-18)
(1.97341 2.0045 0)
(2.11599 2.0045 3.8753e-20)
(2.26705 2.00451 -2.54917e-18)
(2.42711 2.00451 -2.53061e-18)
(2.57001 2.00451 4.41141e-19)
(2.69075 2.00452 3.19256e-18)
(2.80894 2.00452 7.136e-19)
(2.92464 2.00452 -3.82981e-19)
(3.03791 2.00452 0)
(3.14878 2.00452 3.27281e-18)
(3.25731 2.00452 -1.5431e-17)
(3.36355 2.00452 -8.49974e-18)
(3.46755 2.00453 -5.67673e-19)
(3.56936 2.00453 5.6154e-19)
(3.66902 2.00453 -7.15331e-19)
(3.76657 2.00453 -5.47253e-18)
(3.86207 2.00453 -3.81212e-19)
(3.95555 2.00453 3.81301e-19)
(4.04706 2.00453 8.69557e-18)
(4.13663 2.00453 -1.1579e-17)
(4.22432 2.00453 -1.69371e-17)
(4.31015 2.00453 7.64495e-18)
(4.39418 2.00453 -4.19665e-18)
(4.47643 2.00453 -1.53862e-18)
(0.528302 2.20598 2.39417e-20)
(0.58559 2.206 -5.87751e-19)
(0.64629 2.20602 9.21658e-19)
(0.710605 2.20603 2.02114e-19)
(0.77875 2.20605 -1.28813e-18)
(0.850952 2.20606 -1.92749e-20)
(0.927454 2.20607 2.32871e-18)
(1.00851 2.20608 -1.54576e-18)
(1.09439 2.20609 -1.10692e-18)
(1.18539 2.2061 2.50205e-18)
(1.2818 2.2061 0)
(1.38395 2.20611 2.22477e-18)
(1.49218 2.20612 -4.49716e-18)
(1.60686 2.20612 -4.13651e-18)
(1.72836 2.20613 -7.33367e-19)
(1.8571 2.20613 -4.67134e-18)
(1.9935 2.20614 6.58849e-19)
(2.13802 2.20614 1.16839e-17)
(2.29114 2.20614 2.57724e-18)
(2.45337 2.20615 -5.62051e-18)
(2.59823 2.20615 9.31368e-19)
(2.72061 2.20615 -3.11506e-18)
(2.84041 2.20615 1.01509e-17)
(2.95769 2.20615 -7.84939e-20)
(3.0725 2.20616 7.33839e-19)
(3.18488 2.20616 0)
(3.29489 2.20616 -6.48411e-18)
(3.40258 2.20616 1.84594e-17)
(3.508 2.20616 8.79535e-18)
(3.61119 2.20616 -2.32368e-18)
(3.71221 2.20616 6.25011e-18)
(3.8111 2.20616 -5.50485e-18)
(3.90789 2.20616 -2.74213e-18)
(4.00265 2.20616 5.54891e-18)
(4.0954 2.20616 -3.42238e-18)
(4.1862 2.20617 3.6438e-18)
(4.27508 2.20617 -3.87594e-18)
(4.36208 2.20617 1.14399e-17)
(4.44725 2.20617 -2.39018e-17)
(4.53062 2.20617 -5.57166e-18)
(0.528688 2.40762 0)
(0.586746 2.40764 -8.02994e-19)
(0.648262 2.40765 -9.30546e-19)
(0.713442 2.40767 6.80526e-19)
(0.782503 2.40768 4.66305e-19)
(0.855676 2.4077 2.21793e-18)
(0.933206 2.40771 -4.51928e-18)
(1.01535 2.40772 -7.33864e-20)
(1.10239 2.40773 -2.71992e-19)
(1.19461 2.40773 1.9319e-20)
(1.29232 2.40774 -2.16483e-18)
(1.39584 2.40775 -4.6944e-18)
(1.50553 2.40775 2.66137e-18)
(1.62175 2.40776 -3.87041e-20)
(1.74488 2.40776 -1.72063e-18)
(1.87535 2.40777 2.0398e-18)
(2.01358 2.40777 1.39122e-18)
(2.16004 2.40777 -4.46863e-18)
(2.31522 2.40778 -7.37903e-19)
(2.47964 2.40778 -1.01317e-17)
(2.62644 2.40778 3.45701e-18)
(2.75047 2.40779 -3.87075e-18)
(2.87188 2.40779 2.97457e-18)
(2.99074 2.40779 6.21588e-18)
(3.10709 2.40779 -2.8427e-19)
(3.22098 2.40779 7.86364e-20)
(3.33247 2.40779 -8.75574e-18)
(3.44161 2.40779 3.30217e-18)
(3.54845 2.40779 -2.81489e-18)
(3.65303 2.4078 -1.22184e-18)
(3.7554 2.4078 -2.7769e-18)
(3.85562 2.4078 2.68454e-18)
(3.95372 2.4078 -6.71131e-18)
(4.04974 2.4078 -8.38319e-18)
(4.14375 2.4078 2.14454e-18)
(4.23576 2.4078 0)
(4.32584 2.4078 1.11553e-18)
(4.41401 2.4078 -2.26037e-17)
(4.50033 2.4078 1.19843e-18)
(4.58482 2.4078 -5.35555e-18)
(0.529075 2.60925 -9.96987e-19)
(0.587903 2.60927 7.18733e-19)
(0.650235 2.60929 7.69788e-19)
(0.716279 2.60931 4.69818e-20)
(0.786255 2.60932 -3.85188e-19)
(0.860399 2.60933 -2.38274e-19)
(0.938957 2.60934 4.62619e-18)
(1.02219 2.60935 7.00894e-20)
(1.11038 2.60936 -2.4407e-18)
(1.20383 2.60937 2.65543e-18)
(1.30283 2.60938 -3.7438e-18)
(1.40773 2.60938 1.84084e-19)
(1.51887 2.60939 -1.88431e-19)
(1.63663 2.60939 3.92308e-18)
(1.7614 2.6094 0)
(1.8936 2.6094 4.17608e-18)
(2.03367 2.60941 -3.07278e-18)
(2.18207 2.60941 1.49995e-19)
(2.33931 2.60941 -5.15781e-18)
(2.50591 2.60942 3.79193e-18)
(2.65465 2.60942 -6.17714e-19)
(2.78033 2.60942 6.16562e-18)
(2.90335 2.60942 6.1332e-18)
(3.02379 2.60942 2.5871e-19)
(3.14168 2.60943 -2.55261e-18)
(3.25708 2.60943 2.75946e-18)
(3.37005 2.60943 -3.92398e-18)
(3.48064 2.60943 -3.80714e-19)
(3.58889 2.60943 5.33966e-18)
(3.69486 2.60943 5.82533e-18)
(3.79859 2.60943 2.50395e-18)
(3.90014 2.60943 7.0941e-18)
(3.99954 2.60943 -4.74002e-18)
(4.09684 2.60943 1.08637e-18)
(4.19209 2.60943 7.51299e-18)
(4.28533 2.60943 4.67441e-18)
(4.3766 2.60944 7.91055e-20)
(4.46594 2.60944 -5.08571e-18)
(4.5534 2.60944 -1.15684e-17)
(4.63901 2.60944 7.91822e-20)
(0.529463 2.81089 -8.76402e-20)
(0.58906 2.81091 9.92152e-19)
(0.652207 2.81093 -1.1978e-19)
(0.719115 2.81094 8.48201e-19)
(0.790008 2.81096 -1.24716e-19)
(0.865123 2.81097 1.92585e-20)
(0.944709 2.81098 -6.97229e-19)
(1.02903 2.81099 -3.4853e-18)
(1.11838 2.811 -2.99002e-19)
(1.21305 2.81101 -2.19254e-18)
(1.31335 2.81101 3.05386e-18)
(1.41962 2.81102 3.50998e-18)
(1.53222 2.81102 4.5279e-18)
(1.65152 2.81103 -7.71599e-18)
(1.77792 2.81103 -1.26032e-18)
(1.91185 2.81104 3.87246e-20)
(2.05375 2.81104 -2.07959e-18)
(2.2041 2.81105 -8.42502e-18)
(2.3634 2.81105 9.29012e-19)
(2.53218 2.81105 -3.0864e-18)
(2.68287 2.81105 -5.99087e-18)
(2.81019 2.81106 -3.91639e-20)
(2.93482 2.81106 -8.28982e-18)
(3.05683 2.81106 3.03537e-18)
(3.17627 2.81106 -2.4759e-18)
(3.29318 2.81106 8.38358e-18)
(3.40763 2.81106 2.96146e-18)
(3.51967 2.81106 2.7092e-18)
(3.62934 2.81106 7.88117e-20)
(3.7367 2.81107 8.13796e-18)
(3.84179 2.81107 3.02199e-19)
(3.94466 2.81107 -5.41449e-18)
(4.04536 2.81107 -3.17651e-18)
(4.14394 2.81107 -9.13857e-18)
(4.24043 2.81107 -2.71714e-17)
(4.33489 2.81107 4.6064e-19)
(4.42736 2.81107 -1.59662e-17)
(4.51787 2.81107 -1.89386e-17)
(4.60648 2.81107 -1.39882e-17)
(4.69321 2.81107 -2.16284e-18)
(0.52985 3.01253 -1.10085e-19)
(0.590217 3.01255 7.53888e-19)
(0.65418 3.01257 -9.29351e-19)
(0.721952 3.01258 9.9503e-20)
(0.793761 3.01259 5.60188e-19)
(0.869846 3.01261 -9.62029e-19)
(0.950461 3.01262 -1.5098e-19)
(1.03588 3.01263 1.50445e-18)
(1.12638 3.01263 4.92404e-18)
(1.22226 3.01264 -4.34891e-18)
(1.32386 3.01265 -1.13583e-19)
(1.43151 3.01265 1.23801e-18)
(1.54556 3.01266 -7.45544e-18)
(1.6664 3.01266 2.23949e-18)
(1.79444 3.01267 4.3058e-18)
(1.9301 3.01267 0)
(2.07384 3.01268 1.63556e-18)
(2.22613 3.01268 -7.37517e-20)
(2.38748 3.01268 -2.741e-18)
(2.55844 3.01269 5.50156e-19)
(2.71108 3.01269 1.21849e-17)
(2.84005 3.01269 -3.84634e-18)
(2.96629 3.01269 -6.68151e-18)
(3.08988 3.01269 -5.81245e-18)
(3.21086 3.0127 7.58085e-18)
(3.32929 3.0127 7.86452e-20)
(3.44521 3.0127 -9.6309e-19)
(3.5587 3.0127 -3.02791e-18)
(3.66978 3.0127 2.54434e-18)
(3.77853 3.0127 -2.0227e-18)
(3.88498 3.0127 2.40556e-18)
(3.98918 3.0127 4.81211e-18)
(4.09118 3.0127 4.72877e-18)
(4.19104 3.0127 4.95739e-18)
(4.28878 3.0127 1.89877e-17)
(4.38446 3.0127 -1.34505e-18)
(4.47812 3.01271 -1.01449e-17)
(4.5698 3.01271 1.01422e-17)
(4.65955 3.01271 -9.48238e-19)
(4.74741 3.01271 1.11607e-18)
(0.530237 3.21416 0)
(0.591374 3.21418 0)
(0.656153 3.2142 -8.39144e-20)
(0.72479 3.21422 -5.95498e-19)
(0.797514 3.21423 -1.24062e-18)
(0.87457 3.21424 -1.01028e-18)
(0.956213 3.21425 -3.1868e-18)
(1.04272 3.21426 0)
(1.13437 3.21427 -2.49449e-18)
(1.23148 3.21428 1.25108e-18)
(1.33438 3.21428 -1.70827e-18)
(1.4434 3.21429 -4.72846e-18)
(1.55891 3.2143 -3.49148e-19)
(1.68129 3.2143 -2.46424e-18)
(1.81096 3.21431 1.80963e-18)
(1.94835 3.21431 -1.88684e-19)
(2.09392 3.21431 -2.19294e-18)
(2.24815 3.21432 4.10309e-18)
(2.41157 3.21432 -2.53278e-18)
(2.58471 3.21432 5.29932e-18)
(2.7393 3.21433 3.02747e-18)
(2.86991 3.21433 -3.3874e-18)
(2.99776 3.21433 7.23154e-18)
(3.12293 3.21433 9.56598e-19)
(3.24545 3.21433 5.0122e-18)
(3.36539 3.21433 3.14602e-18)
(3.48279 3.21433 -2.4579e-18)
(3.59773 3.21433 -1.32254e-17)
(3.71023 3.21434 5.44835e-18)
(3.82036 3.21434 2.93943e-18)
(3.92817 3.21434 -7.89111e-20)
(4.0337 3.21434 1.05093e-17)
(4.13701 3.21434 1.00897e-17)
(4.23813 3.21434 0)
(4.33712 3.21434 9.45184e-18)
(4.43402 3.21434 4.62536e-19)
(4.52888 3.21434 7.91196e-20)
(4.62173 3.21434 1.00502e-17)
(4.71263 3.21434 -1.45298e-17)
(4.8016 3.21434 -3.02679e-19)
(0.530625 3.4158 2.39525e-20)
(0.592531 3.41582 1.43461e-18)
(0.658125 3.41584 9.04602e-20)
(0.727627 3.41586 2.36837e-19)
(0.801267 3.41587 1.45297e-18)
(0.879293 3.41588 -3.25503e-20)
(0.961965 3.41589 -3.34564e-18)
(1.04956 3.4159 -2.13824e-19)
(1.14237 3.41591 2.42875e-18)
(1.2407 3.41591 0)
(1.34489 3.41592 2.1935e-18)
(1.45529 3.41593 -1.96801e-19)
(1.57225 3.41593 -4.86061e-19)
(1.69618 3.41594 -1.14849e-18)
(1.82748 3.41594 2.35161e-18)
(1.9666 3.41595 -3.45964e-18)
(2.114 3.41595 2.27452e-19)
(2.27018 3.41595 1.59638e-18)
(2.43566 3.41596 2.16031e-18)
(2.61098 3.41596 -1.21653e-17)
(2.76751 3.41596 5.9272e-18)
(2.89977 3.41596 -3.51303e-19)
(3.02924 3.41596 5.66914e-18)
(3.15597 3.41597 4.36261e-19)
(3.28004 3.41597 -1.35047e-17)
(3.40149 3.41597 4.37985e-18)
(3.52038 3.41597 -4.6093e-18)
(3.63675 3.41597 1.83338e-18)
(3.75068 3.41597 -5.32254e-20)
(3.8622 3.41597 4.61796e-18)
(3.97136 3.41597 -1.5573e-18)
(4.07822 3.41597 -5.14149e-18)
(4.18283 3.41597 -4.13802e-18)
(4.28523 3.41597 1.04962e-18)
(4.38547 3.41597 5.22604e-18)
(4.48359 3.41598 -8.76518e-19)
(4.57964 3.41598 9.78974e-19)
(4.67366 3.41598 -4.33928e-18)
(4.7657 3.41598 -1.06116e-18)
(4.8558 3.41598 -7.92017e-20)
(0.531013 3.61744 -1.53807e-18)
(0.593689 3.61746 -3.18302e-18)
(0.660098 3.61748 5.93258e-19)
(0.730464 3.61749 -4.71142e-19)
(0.805021 3.61751 1.55624e-18)
(0.884017 3.61752 8.07828e-20)
(0.967717 3.61753 -1.61544e-18)
(1.0564 3.61754 1.52216e-18)
(1.15037 3.61754 -2.12974e-18)
(1.24992 3.61755 -4.73254e-19)
(1.35541 3.61756 -6.29751e-18)
(1.46717 3.61756 -1.93239e-20)
(1.58559 3.61757 1.32906e-18)
(1.71106 3.61757 1.05189e-18)
(1.844 3.61758 -2.28068e-19)
(1.98485 3.61758 2.11286e-19)
(2.13409 3.61759 1.52831e-18)
(2.29221 3.61759 -3.4402e-18)
(2.45974 3.61759 -2.3834e-18)
(2.63725 3.61759 -2.13218e-18)
(2.79572 3.6176 -3.91147e-20)
(2.92963 3.6176 5.62843e-18)
(3.06071 3.6176 -2.46393e-18)
(3.18902 3.6176 2.91485e-18)
(3.31463 3.6176 6.37248e-19)
(3.43759 3.6176 1.11269e-17)
(3.55796 3.6176 2.34328e-18)
(3.67578 3.61761 8.02388e-18)
(3.79112 3.61761 -2.30608e-18)
(3.90403 3.61761 -5.00853e-18)
(4.01455 3.61761 9.65319e-18)
(4.12275 3.61761 -7.896e-20)
(4.22865 3.61761 -9.64586e-18)
(4.33233 3.61761 1.42382e-17)
(4.43381 3.61761 -1.95867e-17)
(4.53315 3.61761 5.41334e-19)
(4.6304 3.61761 5.37067e-18)
(4.72559 3.61761 4.7542e-19)
(4.81878 3.61761 4.73977e-18)
(4.90999 3.61761 9.34341e-18)
(0.531401 3.81908 -5.38254e-19)
(0.594846 3.8191 1.29657e-18)
(0.662072 3.81911 6.03122e-20)
(0.733301 3.81913 -1.09665e-18)
(0.808774 3.81914 4.97047e-19)
(0.888741 3.81915 -8.58724e-19)
(0.973469 3.81916 -2.60499e-18)
(1.06324 3.81917 -1.46375e-19)
(1.15836 3.81918 -2.43251e-19)
(1.25914 3.81919 1.84058e-18)
(1.36592 3.81919 -6.45698e-19)
(1.47906 3.8192 -3.60676e-19)
(1.59894 3.8192 -7.89726e-18)
(1.72595 3.81921 -2.49309e-18)
(1.86052 3.81921 -3.86989e-20)
(2.0031 3.81922 5.3171e-19)
(2.15417 3.81922 -5.32331e-19)
(2.31424 3.81922 -1.16875e-17)
(2.48383 3.81923 -3.87525e-20)
(2.66352 3.81923 6.79354e-18)
(2.82394 3.81923 -2.24753e-18)
(2.95949 3.81923 -7.83345e-20)
(3.09218 3.81924 -7.94931e-18)
(3.22207 3.81924 3.03397e-18)
(3.34922 3.81924 5.25147e-18)
(3.47369 3.81924 3.93404e-18)
(3.59554 3.81924 -2.28886e-18)
(3.71481 3.81924 -1.73716e-18)
(3.83157 3.81924 -9.61231e-19)
(3.94586 3.81924 8.44626e-18)
(4.05775 3.81924 -1.40403e-18)
(4.16727 3.81924 -5.35608e-19)
(4.27448 3.81924 4.90835e-18)
(4.37942 3.81925 3.02461e-19)
(4.48216 3.81925 -5.84422e-19)
(4.58272 3.81925 -1.00986e-18)
(4.68116 3.81925 -4.42281e-18)
(4.77752 3.81925 4.88808e-18)
(4.87185 3.81925 -4.51433e-18)