/*--------------------------------*- C++ -*----------------------------------*\
| =========                 |                                                 |
| \\      /  F ield         | OpenFOAM: The Open Source CFD Toolbox           |
|  \\    /   O peration     | Version:  2312                                  |
|   \\  /    A nd           | Website:  www.openfoam.com                      |
|    \\/     M anipulation  |                                                 |
\*---------------------------------------------------------------------------*/
FoamFile
{
    version     2.0;
    format      ascii;
    arch        "LSB;label=32;scalar=64";
    class       volScalarField;
    location    "constant";
    object      Cx;
}
// * * * * * * * * * * * * * * * * * * * * * * * * * * * * * * * * * * * * * //

dimensions      [0 1 0 0 0 0 0];

internalField   nonuniform List<scalar> 
3780
(
0.402185
0.427646
0.454622
0.483206
0.513491
0.545579
0.579579
0.615602
0.653771
0.694212
0.73706
0.78246
0.830562
0.881529
0.935529
0.992744
1.05337
1.11759
1.18565
1.25775
1.32216
1.37656
1.4298
1.48193
1.53296
1.58291
1.6318
1.67966
1.72652
1.77238
1.81728
1.86123
1.90425
1.94637
1.98759
2.02795
2.06745
2.10612
2.14397
2.18102
0.402914
0.429845
0.45838
0.488615
0.52065
0.554592
0.590555
0.62866
0.669034
0.711811
0.757135
0.805158
0.856039
0.90995
0.96707
1.02759
1.09171
1.15965
1.23164
1.30791
1.37603
1.43357
1.4899
1.54503
1.59901
1.65184
1.70356
1.75419
1.80375
1.85227
1.89976
1.94625
1.99175
2.0363
2.07991
2.12259
2.16438
2.20528
2.24532
2.28452
0.403691
0.432189
0.462383
0.494376
0.528275
0.564191
0.602247
0.642568
0.68529
0.730556
0.778517
0.829333
0.883174
0.940221
1.00066
1.0647
1.13256
1.20445
1.28062
1.36133
1.43341
1.4943
1.5539
1.61224
1.66936
1.72526
1.77999
1.83357
1.88601
1.93735
1.9876
2.03679
2.08495
2.13208
2.17823
2.2234
2.26761
2.31089
2.35326
2.39474
0.404519
0.434685
0.466648
0.500514
0.536396
0.574416
0.614699
0.657381
0.702605
0.75052
0.801289
0.85508
0.912074
0.97246
1.03644
1.10423
1.17606
1.25216
1.33279
1.41822
1.49452
1.55897
1.62206
1.68382
1.74428
1.80346
1.86139
1.9181
1.97362
2.02796
2.08115
2.13323
2.1842
2.2341
2.28294
2.33076
2.37756
2.42338
2.46823
2.51213
0.405403
0.437345
0.47119
0.507051
0.545047
0.585306
0.627962
0.673159
0.721046
0.771784
0.825543
0.882503
0.942854
1.0068
1.07455
1.14633
1.22239
1.30297
1.38836
1.47882
1.55961
1.62786
1.69466
1.76006
1.82408
1.88674
1.94809
2.00814
2.06692
2.12447
2.18079
2.23593
2.28991
2.34275
2.39447
2.4451
2.49466
2.54318
2.59067
2.63716
0.406345
0.440179
0.476029
0.514014
0.554261
0.596906
0.642089
0.689963
0.740687
0.794432
0.851376
0.91171
0.975637
1.04337
1.11513
1.19117
1.27173
1.35709
1.44753
1.54336
1.62893
1.70122
1.77198
1.84125
1.90906
1.97544
2.04042
2.10403
2.1663
2.22725
2.28692
2.34532
2.4025
2.45846
2.51325
2.56688
2.61938
2.67077
2.72107
2.77031
0.40735
0.443199
0.481184
0.521432
0.564076
0.60926
0.657135
0.707861
0.761607
0.818553
0.878889
0.942818
1.01055
1.08232
1.15836
1.23893
1.32429
1.41473
1.51056
1.61209
1.70276
1.77935
1.85433
1.92773
1.99958
2.06991
2.13876
2.20616
2.27214
2.33672
2.39994
2.46183
2.52241
2.58171
2.63976
2.69658
2.75221
2.80666
2.85996
2.91213
0.408422
0.446417
0.486676
0.529332
0.57453
0.622419
0.673161
0.726923
0.783887
0.844243
0.908192
0.975949
1.04774
1.1238
1.2044
1.28979
1.38026
1.47612
1.57769
1.6853
1.78139
1.86257
1.94204
2.01983
2.09598
2.17053
2.2435
2.31493
2.38486
2.45331
2.52032
2.58591
2.65011
2.71297
2.77449
2.83472
2.89367
2.95139
3.00788
3.06318
0.409565
0.449845
0.492526
0.537748
0.585665
0.636435
0.69023
0.747227
0.807618
0.871605
0.939402
1.01124
1.08735
1.16799
1.25343
1.34396
1.43987
1.5415
1.64918
1.76327
1.86514
1.9512
2.03545
2.11792
2.19866
2.27769
2.35505
2.43078
2.50491
2.57748
2.64852
2.71806
2.78613
2.85276
2.91799
2.98184
3.04434
3.10553
3.16542
3.22405
0.410785
0.453498
0.498757
0.546713
0.597525
0.651364
0.708409
0.768852
0.832893
0.900748
0.972643
1.04882
1.12953
1.21504
1.30565
1.40165
1.50337
1.61114
1.72532
1.84631
1.95433
2.0456
2.13494
2.2224
2.30801
2.39182
2.47386
2.55416
2.63278
2.70973
2.78506
2.85881
2.93099
3.00165
3.07082
3.13853
3.20481
3.2697
3.33321
3.39538
0.412086
0.457391
0.505396
0.556262
0.610158
0.667265
0.727773
0.791884
0.859813
0.931787
1.00805
1.08885
1.17446
1.26516
1.36127
1.4631
1.57099
1.6853
1.80642
1.93475
2.04933
2.14613
2.2409
2.33366
2.42447
2.51337
2.60039
2.68557
2.76896
2.85058
2.93049
3.00871
3.08527
3.16023
3.23359
3.30542
3.37572
3.44454
3.51191
3.57786
0.413475
0.461539
0.512469
0.566434
0.623614
0.684201
0.748397
0.816415
0.888485
0.964845
1.04575
1.13148
1.22231
1.31854
1.42051
1.52854
1.64301
1.76429
1.89279
2.02894
2.1505
2.25321
2.35375
2.45217
2.54851
2.64283
2.73515
2.82553
2.914
3.0006
3.08537
3.16836
3.24959
3.32911
3.40695
3.48315
3.55774
3.63076
3.70223
3.7722
0.414139
0.46352
0.515844
0.571283
0.630025
0.692265
0.758211
0.828083
0.902116
0.980556
1.06367
1.15172
1.24502
1.34388
1.44862
1.55959
1.67717
1.80175
1.93375
2.0736
2.19846
2.30396
2.40724
2.50833
2.6073
2.70418
2.79901
2.89185
2.98272
3.07168
3.15876
3.244
3.32744
3.40912
3.48908
3.56735
3.64397
3.71897
3.79239
3.86426
0.41405
0.463254
0.515389
0.57063
0.629161
0.691177
0.756886
0.826507
0.900274
0.978433
1.06124
1.14899
1.24195
1.34045
1.44481
1.55539
1.67255
1.79668
1.9282
2.06755
2.19196
2.29708
2.39999
2.50072
2.59933
2.69586
2.79036
2.88286
2.9734
3.06204
3.14881
3.23374
3.31689
3.39828
3.47795
3.55594
3.63228
3.70701
3.78016
3.85177
0.413961
0.462987
0.514935
0.569976
0.628296
0.690089
0.755561
0.824932
0.898432
0.976309
1.05882
1.14625
1.23888
1.33702
1.44101
1.55119
1.66792
1.79161
1.92266
2.0615
2.18547
2.29021
2.39274
2.49311
2.59137
2.68755
2.7817
2.87387
2.96409
3.05241
3.13886
3.22349
3.30633
3.38743
3.46681
3.54452
3.62059
3.69505
3.76794
3.83929
0.413871
0.462721
0.51448
0.569323
0.627432
0.689001
0.754236
0.823356
0.896591
0.974186
1.0564
1.14351
1.2358
1.33359
1.4372
1.54698
1.6633
1.78653
1.91711
2.05545
2.17897
2.28333
2.38549
2.4855
2.5834
2.67923
2.77304
2.86488
2.95477
3.04277
3.12891
3.21324
3.29578
3.37658
3.45568
3.5331
3.6089
3.68309
3.75572
3.82681
0.413782
0.462454
0.514026
0.568669
0.626567
0.687913
0.752911
0.82178
0.894749
0.972062
1.05398
1.14077
1.23273
1.33016
1.4334
1.54278
1.65867
1.78146
1.91156
2.0494
2.17247
2.27645
2.37824
2.47789
2.57543
2.67092
2.76439
2.85589
2.94546
3.03314
3.11896
3.20298
3.28523
3.36573
3.44454
3.52169
3.59721
3.67113
3.74349
3.81433
0.413693
0.462188
0.513571
0.568016
0.625703
0.686825
0.751587
0.820204
0.892907
0.969939
1.05156
1.13803
1.22966
1.32674
1.42959
1.53858
1.65404
1.77639
1.90601
2.04335
2.16597
2.26958
2.371
2.47028
2.56746
2.6626
2.75573
2.8469
2.93614
3.0235
3.10902
3.19273
3.27467
3.35489
3.43341
3.51027
3.58551
3.65917
3.73127
3.80184
0.413603
0.461921
0.513117
0.567362
0.624838
0.685737
0.750262
0.818628
0.891065
0.967815
1.04913
1.13529
1.22658
1.32331
1.42579
1.53437
1.64942
1.77131
1.90046
2.0373
2.15947
2.2627
2.36375
2.46267
2.5595
2.65429
2.74708
2.83791
2.92683
3.01386
3.09907
3.18247
3.26412
3.34404
3.42227
3.49886
3.57382
3.64721
3.71904
3.78936
0.413514
0.461654
0.512663
0.566709
0.623974
0.684649
0.748937
0.817053
0.889224
0.965692
1.04671
1.13256
1.22351
1.31988
1.42198
1.53017
1.64479
1.76624
1.89492
2.03125
2.15297
2.25582
2.3565
2.45505
2.55153
2.64597
2.73842
2.82892
2.91751
3.00423
3.08912
3.17222
3.25356
3.33319
3.41114
3.48744
3.56213
3.63525
3.70682
3.77688
0.413425
0.461388
0.512208
0.566055
0.623109
0.683561
0.747612
0.815477
0.887382
0.963568
1.04429
1.12982
1.22044
1.31645
1.41818
1.52596
1.64017
1.76117
1.88937
2.0252
2.14648
2.24894
2.34925
2.44744
2.54356
2.63766
2.72977
2.81993
2.90819
2.99459
3.07917
3.16196
3.24301
3.32234
3.4
3.47602
3.55044
3.62329
3.69459
3.7644
0.413336
0.461121
0.511754
0.565402
0.622245
0.682473
0.746287
0.813901
0.88554
0.961445
1.04187
1.12708
1.21736
1.31302
1.41437
1.52176
1.63554
1.75609
1.88382
2.01915
2.13998
2.24207
2.342
2.43983
2.5356
2.62934
2.72111
2.81094
2.89888
2.98496
3.06922
3.15171
3.23245
3.3115
3.38887
3.46461
3.53875
3.61132
3.68237
3.75191
0.413246
0.460855
0.511299
0.564748
0.621381
0.681385
0.744962
0.812325
0.883699
0.959321
1.03945
1.12434
1.21429
1.30959
1.41057
1.51756
1.63091
1.75102
1.87827
2.0131
2.13348
2.23519
2.33475
2.43222
2.52763
2.62103
2.71245
2.80195
2.88956
2.97532
3.05928
3.14145
3.2219
3.30065
3.37773
3.45319
3.52706
3.59936
3.67014
3.73943
0.413157
0.460588
0.510845
0.564095
0.620516
0.680297
0.743638
0.810749
0.881857
0.957198
1.03702
1.1216
1.21122
1.30616
1.40676
1.51335
1.62629
1.74595
1.87273
2.00705
2.12698
2.22831
2.32751
2.42461
2.51966
2.61271
2.7038
2.79296
2.88025
2.96569
3.04933
3.1312
3.21135
3.2898
3.3666
3.44178
3.51537
3.5874
3.65792
3.72695
0.413068
0.460322
0.510391
0.563442
0.619652
0.679209
0.742313
0.809174
0.880015
0.955074
1.0346
1.11886
1.20814
1.30274
1.40296
1.50915
1.62166
1.74087
1.86718
2.001
2.12048
2.22143
2.32026
2.417
2.5117
2.6044
2.69514
2.78397
2.87093
2.95605
3.03938
3.12095
3.20079
3.27895
3.35546
3.43036
3.50367
3.57544
3.6457
3.71447
0.412979
0.460055
0.509936
0.562788
0.618787
0.678121
0.740988
0.807598
0.878174
0.952951
1.03218
1.11613
1.20507
1.29931
1.39916
1.50495
1.61704
1.7358
1.86163
1.99495
2.11398
2.21456
2.31301
2.40938
2.50373
2.59608
2.68649
2.77498
2.86162
2.94642
3.02943
3.11069
3.19024
3.26811
3.34433
3.41894
3.49198
3.56348
3.63347
3.70198
0.412889
0.459789
0.509482
0.562135
0.617923
0.677033
0.739663
0.806022
0.876332
0.950827
1.02976
1.11339
1.202
1.29588
1.39535
1.50074
1.61241
1.73073
1.85608
1.9889
2.10749
2.20768
2.30576
2.40177
2.49576
2.58777
2.67783
2.766
2.8523
2.93678
3.01948
3.10044
3.17968
3.25726
3.33319
3.40753
3.48029
3.55152
3.62125
3.6895
0.4128
0.459522
0.509028
0.561481
0.617059
0.675945
0.738338
0.804446
0.87449
0.948704
1.02734
1.11065
1.19892
1.29245
1.39155
1.49654
1.60778
1.72565
1.85053
1.98285
2.10099
2.2008
2.29851
2.39416
2.48779
2.57945
2.66918
2.75701
2.84298
2.92715
3.00953
3.09018
3.16913
3.24641
3.32206
3.39611
3.4686
3.53956
3.60902
3.67702
0.412711
0.459256
0.508573
0.560828
0.616194
0.674858
0.737014
0.802871
0.872648
0.94658
1.02491
1.10791
1.19585
1.28902
1.38774
1.49234
1.60316
1.72058
1.84499
1.9768
2.09449
2.19392
2.29126
2.38655
2.47983
2.57114
2.66052
2.74802
2.83367
2.91751
2.99959
3.07993
3.15858
3.23556
3.31092
3.3847
3.45691
3.5276
3.5968
3.66453
0.412622
0.458989
0.508119
0.560174
0.61533
0.67377
0.735689
0.801295
0.870807
0.944457
1.02249
1.10517
1.19278
1.28559
1.38394
1.48813
1.59853
1.7155
1.83944
1.97075
2.08799
2.18705
2.28401
2.37894
2.47186
2.56282
2.65186
2.73903
2.82435
2.90788
2.98964
3.06967
3.14802
3.22471
3.29979
3.37328
3.44522
3.51564
3.58457
3.65205
0.412533
0.458723
0.507665
0.559521
0.614465
0.672682
0.734364
0.799719
0.868965
0.942334
1.02007
1.10243
1.1897
1.28216
1.38013
1.48393
1.59391
1.71043
1.83389
1.9647
2.08149
2.18017
2.27677
2.37133
2.46389
2.55451
2.64321
2.73004
2.81504
2.89824
2.97969
3.05942
3.13747
3.21387
3.28865
3.36186
3.43353
3.50368
3.57235
3.63957
0.412443
0.458456
0.50721
0.558868
0.613601
0.671594
0.733039
0.798143
0.867123
0.94021
1.01765
1.0997
1.18663
1.27874
1.37633
1.47973
1.58928
1.70536
1.82834
1.95865
2.07499
2.17329
2.26952
2.36372
2.45593
2.54619
2.63455
2.72105
2.80572
2.88861
2.96974
3.04917
3.12691
3.20302
3.27752
3.35045
3.42184
3.49172
3.56012
3.62709
0.412399
0.458323
0.506983
0.558541
0.613169
0.671049
0.732376
0.797355
0.866202
0.939147
1.01644
1.09833
1.18509
1.27702
1.37442
1.47762
1.58697
1.70282
1.82557
1.95562
2.07174
2.16985
2.26589
2.3599
2.45194
2.54203
2.63022
2.71655
2.80106
2.88378
2.96476
3.04403
3.12163
3.19759
3.27195
3.34473
3.41598
3.48573
3.554
3.62084
0.412399
0.458323
0.506983
0.558541
0.613169
0.671049
0.732376
0.797355
0.866202
0.939147
1.01644
1.09833
1.18509
1.27702
1.37442
1.47762
1.58697
1.70282
1.82557
1.95562
2.07174
2.16985
2.26589
2.3599
2.45194
2.54203
2.63022
2.71655
2.80106
2.88378
2.96476
3.04403
3.12163
3.19759
3.27195
3.34473
3.41598
3.48573
3.554
3.62084
0.412399
0.458323
0.506983
0.558541
0.613169
0.671049
0.732376
0.797355
0.866202
0.939147
1.01644
1.09833
1.18509
1.27702
1.37442
1.47762
1.58697
1.70282
1.82557
1.95562
2.07174
2.16985
2.26589
2.3599
2.45194
2.54203
2.63022
2.71655
2.80106
2.88378
2.96476
3.04403
3.12163
3.19759
3.27195
3.34473
3.41598
3.48573
3.554
3.62084
0.412399
0.458323
0.506983
0.558541
0.613169
0.671049
0.732376
0.797355
0.866202
0.939147
1.01644
1.09833
1.18509
1.27702
1.37442
1.47762
1.58697
1.70282
1.82557
1.95562
2.07174
2.16985
2.26589
2.3599
2.45194
2.54203
2.63022
2.71655
2.80106
2.88378
2.96476
3.04403
3.12163
3.19759
3.27195
3.34473
3.41598
3.48573
3.554
3.62084
0.412399
0.458323
0.506983
0.558541
0.613169
0.671049
0.732376
0.797355
0.866202
0.939147
1.01644
1.09833
1.18509
1.27702
1.37442
1.47762
1.58697
1.70282
1.82557
1.95562
2.07174
2.16985
2.26589
2.3599
2.45194
2.54203
2.63022
2.71655
2.80106
2.88378
2.96476
3.04403
3.12163
3.19759
3.27195
3.34473
3.41598
3.48573
3.554
3.62084
0.412399
0.458323
0.506983
0.558541
0.613169
0.671049
0.732376
0.797355
0.866202
0.939147
1.01644
1.09833
1.18509
1.27702
1.37442
1.47762
1.58697
1.70282
1.82557
1.95562
2.07174
2.16985
2.26589
2.3599
2.45194
2.54203
2.63022
2.71655
2.80106
2.88378
2.96476
3.04403
3.12163
3.19759
3.27195
3.34473
3.41598
3.48573
3.554
3.62084
0.412399
0.458323
0.506983
0.558541
0.613169
0.671049
0.732376
0.797355
0.866202
0.939147
1.01644
1.09833
1.18509
1.27702
1.37442
1.47762
1.58697
1.70282
1.82557
1.95562
2.07174
2.16985
2.26589
2.3599
2.45194
2.54203
2.63022
2.71655
2.80106
2.88378
2.96476
3.04403
3.12163
3.19759
3.27195
3.34473
3.41598
3.48573
3.554
3.62084
0.412399
0.458323
0.506983
0.558541
0.613169
0.671049
0.732376
0.797355
0.866202
0.939147
1.01644
1.09833
1.18509
1.27702
1.37442
1.47762
1.58697
1.70282
1.82557
1.95562
2.07174
2.16985
2.26589
2.3599
2.45194
2.54203
2.63022
2.71655
2.80106
2.88378
2.96476
3.04403
3.12163
3.19759
3.27195
3.34473
3.41598
3.48573
3.554
3.62084
0.412399
0.458323
0.506983
0.558541
0.613169
0.671049
0.732376
0.797355
0.866202
0.939147
1.01644
1.09833
1.18509
1.27702
1.37442
1.47762
1.58697
1.70282
1.82557
1.95562
2.07174
2.16985
2.26589
2.3599
2.45194
2.54203
2.63022
2.71655
2.80106
2.88378
2.96476
3.04403
3.12163
3.19759
3.27195
3.34473
3.41598
3.48573
3.554
3.62084
0.412399
0.458323
0.506983
0.558541
0.613169
0.671049
0.732376
0.797355
0.866202
0.939147
1.01644
1.09833
1.18509
1.27702
1.37442
1.47762
1.58697
1.70282
1.82557
1.95562
2.07174
2.16985
2.26589
2.3599
2.45194
2.54203
2.63022
2.71655
2.80106
2.88378
2.96476
3.04403
3.12163
3.19759
3.27195
3.34473
3.41598
3.48573
3.554
3.62084
0.412399
0.458323
0.506983
0.558541
0.613169
0.671049
0.732376
0.797355
0.866202
0.939147
1.01644
1.09833
1.18509
1.27702
1.37442
1.47762
1.58697
1.70282
1.82557
1.95562
2.07174
2.16985
2.26589
2.3599
2.45194
2.54203
2.63022
2.71655
2.80106
2.88378
2.96476
3.04403
3.12163
3.19759
3.27195
3.34473
3.41598
3.48573
3.554
3.62084
0.412399
0.458323
0.506983
0.558541
0.613169
0.671049
0.732376
0.797355
0.866202
0.939147
1.01644
1.09833
1.18509
1.27702
1.37442
1.47762
1.58697
1.70282
1.82557
1.95562
2.07174
2.16985
2.26589
2.3599
2.45194
2.54203
2.63022
2.71655
2.80106
2.88378
2.96476
3.04403
3.12163
3.19759
3.27195
3.34473
3.41598
3.48573
3.554
3.62084
0.412399
0.458323
0.506983
0.558541
0.613169
0.671049
0.732376
0.797355
0.866202
0.939147
1.01644
1.09833
1.18509
1.27702
1.37442
1.47762
1.58697
1.70282
1.82557
1.95562
2.07174
2.16985
2.26589
2.3599
2.45194
2.54203
2.63022
2.71655
2.80106
2.88378
2.96476
3.04403
3.12163
3.19759
3.27195
3.34473
3.41598
3.48573
3.554
3.62084
0.412399
0.458323
0.506983
0.558541
0.613169
0.671049
0.732376
0.797355
0.866202
0.939147
1.01644
1.09833
1.18509
1.27702
1.37442
1.47762
1.58697
1.70282
1.82557
1.95562
2.07174
2.16985
2.26589
2.3599
2.45194
2.54203
2.63022
2.71655
2.80106
2.88378
2.96476
3.04403
3.12163
3.19759
3.27195
3.34473
3.41598
3.48573
3.554
3.62084
0.412399
0.458323
0.506983
0.558541
0.613169
0.671049
0.732376
0.797355
0.866202
0.939147
1.01644
1.09833
1.18509
1.27702
1.37442
1.47762
1.58697
1.70282
1.82557
1.95562
2.07174
2.16985
2.26589
2.3599
2.45194
2.54203
2.63022
2.71655
2.80106
2.88378
2.96476
3.04403
3.12163
3.19759
3.27195
3.34473
3.41598
3.48573
3.554
3.62084
0.412399
0.458323
0.506983
0.558541
0.613169
0.671049
0.732376
0.797355
0.866202
0.939147
1.01644
1.09833
1.18509
1.27702
1.37442
1.47762
1.58697
1.70282
1.82557
1.95562
2.07174
2.16985
2.26589
2.3599
2.45194
2.54203
2.63022
2.71655
2.80106
2.88378
2.96476
3.04403
3.12163
3.19759
3.27195
3.34473
3.41598
3.48573
3.554
3.62084
0.412399
0.458323
0.506983
0.558541
0.613169
0.671049
0.732376
0.797355
0.866202
0.939147
1.01644
1.09833
1.18509
1.27702
1.37442
1.47762
1.58697
1.70282
1.82557
1.95562
2.07174
2.16985
2.26589
2.3599
2.45194
2.54203
2.63022
2.71655
2.80106
2.88378
2.96476
3.04403
3.12163
3.19759
3.27195
3.34473
3.41598
3.48573
3.554
3.62084
0.412399
0.458323
0.506983
0.558541
0.613169
0.671049
0.732376
0.797355
0.866202
0.939147
1.01644
1.09833
1.18509
1.27702
1.37442
1.47762
1.58697
1.70282
1.82557
1.95562
2.07174
2.16985
2.26589
2.3599
2.45194
2.54203
2.63022
2.71655
2.80106
2.88378
2.96476
3.04403
3.12163
3.19759
3.27195
3.34473
3.41598
3.48573
3.554
3.62084
0.412399
0.458323
0.506983
0.558541
0.613169
0.671049
0.732376
0.797355
0.866202
0.939147
1.01644
1.09833
1.18509
1.27702
1.37442
1.47762
1.58697
1.70282
1.82557
1.95562
2.07174
2.16985
2.26589
2.3599
2.45194
2.54203
2.63022
2.71655
2.80106
2.88378
2.96476
3.04403
3.12163
3.19759
3.27195
3.34473
3.41598
3.48573
3.554
3.62084
0.412399
0.458323
0.506983
0.558541
0.613169
0.671049
0.732376
0.797355
0.866202
0.939147
1.01644
1.09833
1.18509
1.27702
1.37442
1.47762
1.58697
1.70282
1.82557
1.95562
2.07174
2.16985
2.26589
2.3599
2.45194
2.54203
2.63022
2.71655
2.80106
2.88378
2.96476
3.04403
3.12163
3.19759
3.27195
3.34473
3.41598
3.48573
3.554
3.62084
0.412399
0.458323
0.506983
0.558541
0.613169
0.671049
0.732376
0.797355
0.866202
0.939147
1.01644
1.09833
1.18509
1.27702
1.37442
1.47762
1.58697
1.70282
1.82557
1.95562
2.07174
2.16985
2.26589
2.3599
2.45194
2.54203
2.63022
2.71655
2.80106
2.88378
2.96476
3.04403
3.12163
3.19759
3.27195
3.34473
3.41598
3.48573
3.554
3.62084
3.91973
3.90712
3.89451
3.8819
3.86929
3.85668
3.84407
3.83146
3.81885
3.80624
3.79363
3.78102
3.76841
3.7558
3.74319
3.73058
3.71797
3.70536
3.69275
3.68014
4.05866
4.29791
4.54399
4.7971
5.05744
5.32523
5.60066
5.88396
6.17536
6.47509
6.78338
7.10047
7.42663
7.7621
8.10716
8.46208
8.82713
9.20262
9.58883
9.98608
10.3947
10.8149
11.2472
11.6918
12.1492
12.6195
13.1034
13.601
14.1129
14.6393
15.1809
15.7378
16.3107
16.9
17.5061
18.1295
18.7707
19.4302
20.1085
20.8062
4.04615
4.28556
4.53182
4.78512
5.04565
5.31363
5.58927
5.87278
6.16439
6.46434
6.77285
7.09018
7.41658
7.7523
8.09761
8.45278
8.81811
9.19387
9.58036
9.9779
10.3868
10.8074
11.24
11.6849
12.1426
12.6133
13.0975
13.5955
14.1077
14.6346
15.1765
15.7339
16.3072
16.8969
17.5034
18.1273
18.7689
19.4289
20.1078
20.806
4.03363
4.27322
4.51966
4.77314
5.03387
5.30204
5.57788
5.8616
6.15342
6.45359
6.76233
7.07989
7.40652
7.74249
8.08805
8.44349
8.80908
9.18511
9.57189
9.96972
10.3789
10.7998
11.2327
11.678
12.136
12.607
13.0916
13.5899
14.1025
14.6298
15.1721
15.7299
16.3036
16.8938
17.5007
18.125
18.7672
19.4276
20.107
20.8057
4.02111
4.26088
4.5075
4.76116
5.02208
5.29045
5.56649
5.85042
6.14245
6.44284
6.7518
7.0696
7.39647
7.73268
8.07849
8.43419
8.80005
9.17636
9.56342
9.96154
10.371
10.7922
11.2254
11.671
12.1294
12.6008
13.0857
13.5844
14.0974
14.625
15.1677
15.7259
16.3001
16.8906
17.4981
18.1228
18.7654
19.4264
20.1062
20.8055
4.00859
4.24853
4.49533
4.74918
5.01029
5.27886
5.5551
5.83923
6.13148
6.43209
6.74128
7.0593
7.38641
7.72287
8.06894
8.4249
8.79102
9.16761
9.55495
9.95336
10.3631
10.7846
11.2182
11.6641
12.1228
12.5945
13.0798
13.5789
14.0922
14.6203
15.1634
15.722
16.2965
16.8875
17.4954
18.1206
18.7637
19.4251
20.1054
20.8052
3.99607
4.23619
4.48317
4.73721
4.9985
5.26727
5.54371
5.82805
6.12052
6.42134
6.73075
7.04901
7.37636
7.71306
8.05938
8.4156
8.78199
9.15885
9.54648
9.94518
10.3553
10.7771
11.2109
11.6572
12.1162
12.5883
13.0739
13.5733
14.0871
14.6155
15.159
15.718
16.293
16.8844
17.4927
18.1184
18.7619
19.4239
20.1047
20.8049
3.98355
4.22385
4.47101
4.72523
4.98672
5.25567
5.53232
5.81687
6.10955
6.41059
6.72023
7.03872
7.36631
7.70325
8.04983
8.4063
8.77296
9.1501
9.53801
9.937
10.3474
10.7695
11.2037
11.6502
12.1096
12.582
13.068
13.5678
14.0819
14.6107
15.1546
15.714
16.2894
16.8813
17.49
18.1162
18.7602
19.4226
20.1039
20.8047
3.97104
4.2115
4.45884
4.71325
4.97493
5.24408
5.52093
5.80568
6.09858
6.39984
6.7097
7.02843
7.35625
7.69345
8.04027
8.39701
8.76393
9.14134
9.52954
9.92882
10.3395
10.7619
11.1964
11.6433
12.103
12.5758
13.0621
13.5623
14.0768
14.6059
15.1502
15.7101
16.2859
16.8782
17.4874
18.114
18.7584
19.4213
20.1031
20.8044
3.95852
4.19916
4.44668
4.70127
4.96314
5.23249
5.50954
5.7945
6.08761
6.38909
6.69918
7.01813
7.3462
7.68364
8.03072
8.38771
8.75491
9.13259
9.52107
9.92064
10.3316
10.7544
11.1892
11.6364
12.0964
12.5695
13.0562
13.5567
14.0716
14.6012
15.1459
15.7061
16.2823
16.8751
17.4847
18.1117
18.7567
19.4201
20.1024
20.8042
3.946
4.18682
4.43452
4.68929
4.95135
5.2209
5.49815
5.78332
6.07664
6.37834
6.68865
7.00784
7.33614
7.67383
8.02116
8.37842
8.74588
9.12384
9.51259
9.91246
10.3237
10.7468
11.1819
11.6295
12.0898
12.5633
13.0503
13.5512
14.0664
14.5964
15.1415
15.7021
16.2788
16.8719
17.482
18.1095
18.7549
19.4188
20.1016
20.8039
3.93348
4.17447
4.42235
4.67732
4.93956
5.20931
5.48676
5.77213
6.06567
6.36759
6.67813
6.99755
7.32609
7.66402
8.01161
8.36912
8.73685
9.11508
9.50412
9.90428
10.3159
10.7392
11.1746
11.6225
12.0832
12.557
13.0444
13.5457
14.0613
14.5916
15.1371
15.6982
16.2753
16.8688
17.4793
18.1073
18.7532
19.4175
20.1008
20.8037
3.92096
4.16213
4.41019
4.66534
4.92778
5.19772
5.47537
5.76095
6.0547
6.35683
6.66761
6.98725
7.31604
7.65421
8.00205
8.35982
8.72782
9.10633
9.49565
9.8961
10.308
10.7316
11.1674
11.6156
12.0766
12.5508
13.0385
13.5401
14.0561
14.5868
15.1327
15.6942
16.2717
16.8657
17.4767
18.1051
18.7515
19.4163
20.1001
20.8034
3.90844
4.14979
4.39803
4.65336
4.91599
5.18612
5.46398
5.74977
6.04373
6.34608
6.65708
6.97696
7.30598
7.6444
7.99249
8.35053
8.71879
9.09758
9.48718
9.88792
10.3001
10.7241
11.1601
11.6087
12.07
12.5445
13.0326
13.5346
14.051
14.5821
15.1283
15.6902
16.2682
16.8626
17.474
18.1029
18.7497
19.415
20.0993
20.8032
3.89593
4.13744
4.38586
4.64138
4.9042
5.17453
5.45259
5.73859
6.03276
6.33533
6.64656
6.96667
7.29593
7.6346
7.98294
8.34123
8.70976
9.08882
9.47871
9.87974
10.2922
10.7165
11.1529
11.6017
12.0634
12.5383
13.0267
13.5291
14.0458
14.5773
15.124
15.6863
16.2646
16.8595
17.4713
18.1007
18.748
19.4137
20.0985
20.8029
3.88341
4.1251
4.3737
4.6294
4.89241
5.16294
5.4412
5.7274
6.02179
6.32458
6.63603
6.95638
7.28588
7.62479
7.97338
8.33194
8.70073
9.08007
9.47024
9.87156
10.2843
10.7089
11.1456
11.5948
12.0568
12.532
13.0208
13.5235
14.0406
14.5725
15.1196
15.6823
16.2611
16.8564
17.4687
18.0984
18.7462
19.4125
20.0978
20.8026
3.87089
4.11276
4.36154
4.61743
4.88063
5.15135
5.42981
5.71622
6.01082
6.31383
6.62551
6.94608
7.27582
7.61498
7.96383
8.32264
8.69171
9.07132
9.46177
9.86338
10.2765
10.7013
11.1384
11.5879
12.0502
12.5258
13.0149
13.518
14.0355
14.5678
15.1152
15.6783
16.2575
16.8532
17.466
18.0962
18.7445
19.4112
20.097
20.8024
3.85837
4.10041
4.34937
4.60545
4.86884
5.13976
5.41842
5.70504
5.99985
6.30308
6.61498
6.93579
7.26577
7.60517
7.95427
8.31335
8.68268
9.06256
9.4533
9.8552
10.2686
10.6938
11.1311
11.5809
12.0436
12.5195
13.009
13.5125
14.0303
14.563
15.1108
15.6744
16.254
16.8501
17.4633
18.094
18.7427
19.41
20.0962
20.8021
3.84585
4.08807
4.33721
4.59347
4.85705
5.12816
5.40703
5.69385
5.98888
6.29233
6.60446
6.9255
7.25571
7.59536
7.94472
8.30405
8.67365
9.05381
9.44483
9.84702
10.2607
10.6862
11.1238
11.574
12.037
12.5133
13.0031
13.5069
14.0252
14.5582
15.1065
15.6704
16.2504
16.847
17.4606
18.0918
18.741
19.4087
20.0955
20.8019
3.83334
4.07573
4.32505
4.58149
4.84526
5.11657
5.39564
5.68267
5.97791
6.28158
6.59393
6.91521
7.24566
7.58556
7.93516
8.29475
8.66462
9.04505
9.43636
9.83884
10.2528
10.6786
11.1166
11.5671
12.0304
12.507
12.9972
13.5014
14.02
14.5534
15.1021
15.6664
16.2469
16.8439
17.458
18.0896
18.7392
19.4074
20.0947
20.8016
3.82082
4.06339
4.31288
4.56951
4.83348
5.10498
5.38425
5.67149
5.96694
6.27083
6.58341
6.90491
7.23561
7.57575
7.92561
8.28546
8.65559
9.0363
9.42789
9.83066
10.2449
10.671
11.1093
11.5601
12.0238
12.5008
12.9913
13.4959
14.0149
14.5487
15.0977
15.6624
16.2433
16.8408
17.4553
18.0874
18.7375
19.4062
20.0939
20.8014
3.81465
4.05731
4.30691
4.56364
4.82771
5.09932
5.37869
5.66605
5.96162
6.26563
6.57833
6.89997
7.23079
7.57107
7.92107
8.28107
8.65136
9.03222
9.42397
9.82691
10.2414
10.6677
11.1061
11.5571
12.021
12.4982
12.9889
13.4937
14.0129
14.547
15.0963
15.6613
16.2424
16.8402
17.455
18.0874
18.7379
19.4069
20.0951
20.8029
3.81465
4.05731
4.30691
4.56364
4.82771
5.09932
5.37869
5.66605
5.96162
6.26563
6.57833
6.89997
7.23079
7.57107
7.92107
8.28107
8.65136
9.03222
9.42397
9.82691
10.2414
10.6677
11.1061
11.5571
12.021
12.4982
12.9889
13.4937
14.0129
14.547
15.0963
15.6613
16.2424
16.8402
17.455
18.0874
18.7379
19.4069
20.0951
20.8029
3.81465
4.05731
4.30691
4.56364
4.82771
5.09932
5.37869
5.66605
5.96162
6.26563
6.57833
6.89997
7.23079
7.57107
7.92107
8.28107
8.65136
9.03222
9.42397
9.82691
10.2414
10.6677
11.1061
11.5571
12.021
12.4982
12.9889
13.4937
14.0129
14.547
15.0963
15.6613
16.2424
16.8402
17.455
18.0874
18.7379
19.4069
20.0951
20.8029
3.81465
4.05731
4.30691
4.56364
4.82771
5.09932
5.37869
5.66605
5.96162
6.26563
6.57833
6.89997
7.23079
7.57107
7.92107
8.28107
8.65136
9.03222
9.42397
9.82691
10.2414
10.6677
11.1061
11.5571
12.021
12.4982
12.9889
13.4937
14.0129
14.547
15.0963
15.6613
16.2424
16.8402
17.455
18.0874
18.7379
19.4069
20.0951
20.8029
3.81465
4.05731
4.30691
4.56364
4.82771
5.09932
5.37869
5.66605
5.96162
6.26563
6.57833
6.89997
7.23079
7.57107
7.92107
8.28107
8.65136
9.03222
9.42397
9.82691
10.2414
10.6677
11.1061
11.5571
12.021
12.4982
12.9889
13.4937
14.0129
14.547
15.0963
15.6613
16.2424
16.8402
17.455
18.0874
18.7379
19.4069
20.0951
20.8029
3.81465
4.05731
4.30691
4.56364
4.82771
5.09932
5.37869
5.66605
5.96162
6.26563
6.57833
6.89997
7.23079
7.57107
7.92107
8.28107
8.65136
9.03222
9.42397
9.82691
10.2414
10.6677
11.1061
11.5571
12.021
12.4982
12.9889
13.4937
14.0129
14.547
15.0963
15.6613
16.2424
16.8402
17.455
18.0874
18.7379
19.4069
20.0951
20.8029
3.81465
4.05731
4.30691
4.56364
4.82771
5.09932
5.37869
5.66605
5.96162
6.26563
6.57833
6.89997
7.23079
7.57107
7.92107
8.28107
8.65136
9.03222
9.42397
9.82691
10.2414
10.6677
11.1061
11.5571
12.021
12.4982
12.9889
13.4937
14.0129
14.547
15.0963
15.6613
16.2424
16.8402
17.455
18.0874
18.7379
19.4069
20.0951
20.8029
3.81465
4.05731
4.30691
4.56364
4.82771
5.09932
5.37869
5.66605
5.96162
6.26563
6.57833
6.89997
7.23079
7.57107
7.92107
8.28107
8.65136
9.03222
9.42397
9.82691
10.2414
10.6677
11.1061
11.5571
12.021
12.4982
12.9889
13.4937
14.0129
14.547
15.0963
15.6613
16.2424
16.8402
17.455
18.0874
18.7379
19.4069
20.0951
20.8029
3.81465
4.05731
4.30691
4.56364
4.82771
5.09932
5.37869
5.66605
5.96162
6.26563
6.57833
6.89997
7.23079
7.57107
7.92107
8.28107
8.65136
9.03222
9.42397
9.82691
10.2414
10.6677
11.1061
11.5571
12.021
12.4982
12.9889
13.4937
14.0129
14.547
15.0963
15.6613
16.2424
16.8402
17.455
18.0874
18.7379
19.4069
20.0951
20.8029
3.81465
4.05731
4.30691
4.56364
4.82771
5.09932
5.37869
5.66605
5.96162
6.26563
6.57833
6.89997
7.23079
7.57107
7.92107
8.28107
8.65136
9.03222
9.42397
9.82691
10.2414
10.6677
11.1061
11.5571
12.021
12.4982
12.9889
13.4937
14.0129
14.547
15.0963
15.6613
16.2424
16.8402
17.455
18.0874
18.7379
19.4069
20.0951
20.8029
3.81465
4.05731
4.30691
4.56364
4.82771
5.09932
5.37869
5.66605
5.96162
6.26563
6.57833
6.89997
7.23079
7.57107
7.92107
8.28107
8.65136
9.03222
9.42397
9.82691
10.2414
10.6677
11.1061
11.5571
12.021
12.4982
12.9889
13.4937
14.0129
14.547
15.0963
15.6613
16.2424
16.8402
17.455
18.0874
18.7379
19.4069
20.0951
20.8029
3.81465
4.05731
4.30691
4.56364
4.82771
5.09932
5.37869
5.66605
5.96162
6.26563
6.57833
6.89997
7.23079
7.57107
7.92107
8.28107
8.65136
9.03222
9.42397
9.82691
10.2414
10.6677
11.1061
11.5571
12.021
12.4982
12.9889
13.4937
14.0129
14.547
15.0963
15.6613
16.2424
16.8402
17.455
18.0874
18.7379
19.4069
20.0951
20.8029
3.81465
4.05731
4.30691
4.56364
4.82771
5.09932
5.37869
5.66605
5.96162
6.26563
6.57833
6.89997
7.23079
7.57107
7.92107
8.28107
8.65136
9.03222
9.42397
9.82691
10.2414
10.6677
11.1061
11.5571
12.021
12.4982
12.9889
13.4937
14.0129
14.547
15.0963
15.6613
16.2424
16.8402
17.455
18.0874
18.7379
19.4069
20.0951
20.8029
3.81465
4.05731
4.30691
4.56364
4.82771
5.09932
5.37869
5.66605
5.96162
6.26563
6.57833
6.89997
7.23079
7.57107
7.92107
8.28107
8.65136
9.03222
9.42397
9.82691
10.2414
10.6677
11.1061
11.5571
12.021
12.4982
12.9889
13.4937
14.0129
14.547
15.0963
15.6613
16.2424
16.8402
17.455
18.0874
18.7379
19.4069
20.0951
20.8029
3.81465
4.05731
4.30691
4.56364
4.82771
5.09932
5.37869
5.66605
5.96162
6.26563
6.57833
6.89997
7.23079
7.57107
7.92107
8.28107
8.65136
9.03222
9.42397
9.82691
10.2414
10.6677
11.1061
11.5571
12.021
12.4982
12.9889
13.4937
14.0129
14.547
15.0963
15.6613
16.2424
16.8402
17.455
18.0874
18.7379
19.4069
20.0951
20.8029
3.81465
4.05731
4.30691
4.56364
4.82771
5.09932
5.37869
5.66605
5.96162
6.26563
6.57833
6.89997
7.23079
7.57107
7.92107
8.28107
8.65136
9.03222
9.42397
9.82691
10.2414
10.6677
11.1061
11.5571
12.021
12.4982
12.9889
13.4937
14.0129
14.547
15.0963
15.6613
16.2424
16.8402
17.455
18.0874
18.7379
19.4069
20.0951
20.8029
3.81465
4.05731
4.30691
4.56364
4.82771
5.09932
5.37869
5.66605
5.96162
6.26563
6.57833
6.89997
7.23079
7.57107
7.92107
8.28107
8.65136
9.03222
9.42397
9.82691
10.2414
10.6677
11.1061
11.5571
12.021
12.4982
12.9889
13.4937
14.0129
14.547