/*--------------------------------*- C++ -*----------------------------------*\
| =========                 |                                                 |
| \\      /  F ield         | OpenFOAM: The Open Source CFD Toolbox           |
|  \\    /   O peration     | Version:  2312                                  |
|   \\  /    A nd           | Website:  www.openfoam.com                      |
|    \\/     M anipulation  |                                                 |
\*---------------------------------------------------------------------------*/
FoamFile
{
    version     2.0;
    format      ascii;
    arch        "LSB;label=32;scalar=64";
    class       volScalarField;
    location    "constant";
    object      Cx;
}
// * * * * * * * * * * * * * * * * * * * * * * * * * * * * * * * * * * * * * //

dimensions      [0 1 0 0 0 0 0];

internalField   nonuniform List<scalar> 
3780
(
0.513758
0.541851
0.571618
0.603157
0.636575
0.671982
0.709497
0.749247
0.791362
0.835986
0.883266
0.933361
0.986438
1.04268
1.10226
1.16539
1.23228
1.30316
1.37825
1.45781
1.52889
1.58891
1.64767
1.70519
1.76149
1.81661
1.87056
1.92337
1.97507
2.02568
2.07522
2.12372
2.17119
2.21766
2.26315
2.30768
2.35127
2.39394
2.43571
2.47659
0.514559
0.544276
0.575763
0.609124
0.644472
0.681925
0.721608
0.763654
0.808203
0.855404
0.905416
0.958405
1.01455
1.07403
1.13706
1.20384
1.2746
1.34957
1.429
1.51315
1.58833
1.65182
1.71398
1.77482
1.83437
1.89267
1.94974
2.00561
2.0603
2.11383
2.16623
2.21753
2.26774
2.3169
2.36502
2.41212
2.45822
2.50336
2.54754
2.59079
0.515414
0.54686
0.580178
0.61548
0.652884
0.692515
0.734507
0.778998
0.826139
0.876086
0.929007
0.985078
1.04449
1.10743
1.17413
1.24479
1.31966
1.39899
1.48304
1.5721
1.65165
1.71883
1.7846
1.84898
1.912
1.97369
2.03408
2.09319
2.15106
2.20771
2.26316
2.31744
2.37057
2.42259
2.4735
2.52335
2.57213
2.61989
2.66665
2.71241
0.516326
0.549612
0.584881
0.622249
0.661844
0.703795
0.748245
0.795342
0.845242
0.898114
0.954133
1.01349
1.07638
1.14301
1.21361
1.28841
1.36766
1.45164
1.54061
1.63488
1.71908
1.79019
1.85981
1.92796
1.99467
2.05997
2.1239
2.18647
2.24773
2.30769
2.36639
2.42385
2.48009
2.53515
2.58905
2.64181
2.69346
2.74401
2.7935
2.84194
0.517298
0.552544
0.58989
0.62946
0.671387
0.71581
0.762878
0.812749
0.865589
0.921575
0.980894
1.04375
1.11034
1.1809
1.25565
1.33486
1.41879
1.5077
1.60192
1.70174
1.7909
1.8662
1.93992
2.01208
2.08272
2.15187
2.21956
2.28582
2.35069
2.41418
2.47634
2.53718
2.59674
2.65504
2.71211
2.76798
2.82267
2.8762
2.9286
2.9799
0.518334
0.555669
0.595227
0.637141
0.681552
0.728607
0.778464
0.831289
0.88726
0.946563
1.0094
1.07597
1.14651
1.22125
1.30043
1.38434
1.47323
1.56742
1.66721
1.77295
1.86739
1.94715
2.02524
2.10167
2.1765
2.24974
2.32144
2.39163
2.46034
2.5276
2.59343
2.65788
2.72097
2.78273
2.84318
2.90236
2.96028
3.01699
3.0725
3.12683
0.519439
0.558997
0.600912
0.645323
0.692379
0.742237
0.795064
0.851036
0.910341
0.973177
1.03975
1.1103
1.18504
1.26423
1.34813
1.43703
1.53122
1.63102
1.73676
1.84879
1.94885
2.03337
2.1161
2.19709
2.27637
2.35398
2.42996
2.50432
2.57712
2.64839
2.71815
2.78643
2.85328
2.91872
2.98277
3.04547
3.10685
3.16693
3.22575
3.28332
0.520617
0.562544
0.606968
0.654038
0.703911
0.756755
0.812744
0.872068
0.934924
1.00152
1.07209
1.14685
1.22607
1.31
1.39893
1.49315
1.59298
1.69876
1.81083
1.92957
2.03561
2.12519
2.21288
2.29872
2.38275
2.465
2.54553
2.62435
2.70151
2.77704
2.85097
2.92335
2.9942
3.06355
3.13144
3.1979
3.26295
3.32663
3.38897
3.44999
0.521874
0.566323
0.613419
0.663321
0.716195
0.772217
0.831576
0.89447
0.961108
1.03171
1.10652
1.18579
1.26977
1.35875
1.45303
1.55292
1.65876
1.7709
1.88972
2.0156
2.12802
2.22299
2.31595
2.40696
2.49604
2.58325
2.66861
2.75218
2.83398
2.91405
2.99244
3.06917
3.14428
3.21781
3.28978
3.36024
3.4292
3.49672
3.5628
3.62749
0.523214
0.570349
0.620292
0.673209
0.729279
0.788687
0.851634
0.918329
0.988995
1.06387
1.1432
1.22725
1.31631
1.41067
1.51065
1.61658
1.72882
1.84774
1.97373
2.10723
2.22644
2.32715
2.42573
2.52223
2.6167
2.70918
2.7997
2.88832
2.97507
3.05998
3.1431
3.22447
3.30412
3.3821
3.45842
3.53313
3.60627
3.67786
3.74794
3.81655
0.524644
0.574639
0.627613
0.683742
0.743215
0.80623
0.872997
0.943741
1.0187
1.09812
1.18226
1.27142
1.36589
1.46597
1.57202
1.68438
1.80343
1.92957
2.06322
2.20482
2.33126
2.43808
2.54265
2.64501
2.74521
2.8433
2.93932
3.03332
3.12533
3.2154
3.30357
3.38988
3.47437
3.55707
3.63803
3.71728
3.79485
3.87079
3.94513
4.0179
0.526169
0.57921
0.635412
0.694962
0.758059
0.824914
0.895751
0.970807
1.05033
1.13459
1.22387
1.31846
1.41868
1.52487
1.63739
1.7566
1.8829
2.01673
2.15852
2.30875
2.4429
2.55623
2.66717
2.77577
2.88208
2.98615
3.08803
3.18775
3.28537
3.38093
3.47447
3.56604
3.65568
3.74343
3.82932
3.9134
3.9957
4.07627
4.15514
4.23234
0.527142
0.582121
0.640373
0.702095
0.767492
0.836783
0.910199
0.987987
1.0704
1.15773
1.25025
1.34828
1.45215
1.5622
1.6788
1.80235
1.93324
2.07193
2.21888
2.37457
2.51358
2.63103
2.746
2.85855
2.96872
3.07657
3.18215
3.2855
3.38666
3.48569
3.58264
3.67753
3.77042
3.86136
3.95037
4.03751
4.1228
4.2063
4.28803
4.36803
0.527528
0.583277
0.642345
0.704932
0.771245
0.841506
0.915951
0.994828
1.0784
1.16695
1.26077
1.36017
1.4655
1.57709
1.69532
1.8206
1.95333
2.09396
2.24296
2.40084
2.5418
2.66089
2.77747
2.8916
3.00331
3.11268
3.21973
3.32452
3.42711
3.52753
3.62583
3.72205
3.81625
3.90845
3.99871
4.08707
4.17356
4.25822
4.3411
4.42223
0.527915
0.584433
0.644318
0.707768
0.774997
0.846229
0.921702
1.00167
1.0864
1.17617
1.27128
1.37206
1.47884
1.59197
1.71184
1.83885
1.97341
2.11599
2.26705
2.42711
2.57001
2.69075
2.80894
2.92464
3.03791
3.14878
3.25731
3.36355
3.46755
3.56936
3.66902
3.76657
3.86207
3.95555
4.04706
4.13663
4.22432
4.31015
4.39418
4.47643
0.528302
0.58559
0.64629
0.710605
0.77875
0.850952
0.927454
1.00851
1.09439
1.18539
1.2818
1.38395
1.49218
1.60686
1.72836
1.8571
1.9935
2.13802
2.29114
2.45337
2.59823
2.72061
2.84041
2.95769
3.0725
3.18488
3.29489
3.40258
3.508
3.61119
3.71221
3.8111
3.90789
4.00265
4.0954
4.1862
4.27508
4.36208
4.44725
4.53062
0.528688
0.586746
0.648262
0.713442
0.782503
0.855676
0.933206
1.01535
1.10239
1.19461
1.29232
1.39584
1.50553
1.62175
1.74488
1.87535
2.01358
2.16004
2.31522
2.47964
2.62644
2.75047
2.87188
2.99074
3.10709
3.22098
3.33247
3.44161
3.54845
3.65303
3.7554
3.85562
3.95372
4.04974
4.14375
4.23576
4.32584
4.41401
4.50033
4.58482
0.529075
0.587903
0.650235
0.716279
0.786255
0.860399
0.938957
1.02219
1.11038
1.20383
1.30283
1.40773
1.51887
1.63663
1.7614
1.8936
2.03367
2.18207
2.33931
2.50591
2.65465
2.78033
2.90335
3.02379
3.14168
3.25708
3.37005
3.48064
3.58889
3.69486
3.79859
3.90014
3.99954
4.09684
4.19209
4.28533
4.3766
4.46594
4.5534
4.63901
0.529463
0.58906
0.652207
0.719115
0.790008
0.865123
0.944709
1.02903
1.11838
1.21305
1.31335
1.41962
1.53222
1.65152
1.77792
1.91185
2.05375
2.2041
2.3634
2.53218
2.68287
2.81019
2.93482
3.05683
3.17627
3.29318
3.40763
3.51967
3.62934
3.7367
3.84179
3.94466
4.04536
4.14394
4.24043
4.33489
4.42736
4.51787
4.60648
4.69321
0.52985
0.590217
0.65418
0.721952
0.793761
0.869846
0.950461
1.03588
1.12638
1.22226
1.32386
1.43151
1.54556
1.6664
1.79444
1.9301
2.07384
2.22613
2.38748
2.55844
2.71108
2.84005
2.96629
3.08988
3.21086
3.32929
3.44521
3.5587
3.66978
3.77853
3.88498
3.98918
4.09118
4.19104
4.28878
4.38446
4.47812
4.5698
4.65955
4.74741
0.530237
0.591374
0.656153
0.72479
0.797514
0.87457
0.956213
1.04272
1.13437
1.23148
1.33438
1.4434
1.55891
1.68129
1.81096
1.94835
2.09392
2.24815
2.41157
2.58471
2.7393
2.86991
2.99776
3.12293
3.24545
3.36539
3.48279
3.59773
3.71023
3.82036
3.92817
4.0337
4.13701
4.23813
4.33712
4.43402
4.52888
4.62173
4.71263
4.8016
0.530625
0.592531
0.658125
0.727627
0.801267
0.879293
0.961965
1.04956
1.14237
1.2407
1.34489
1.45529
1.57225
1.69618
1.82748
1.9666
2.114
2.27018
2.43566
2.61098
2.76751
2.89977
3.02924
3.15597
3.28004
3.40149
3.52038
3.63675
3.75068
3.8622
3.97136
4.07822
4.18283
4.28523
4.38547
4.48359
4.57964
4.67366
4.7657
4.8558
0.531013
0.593689
0.660098
0.730464
0.805021
0.884017
0.967717
1.0564
1.15037
1.24992
1.35541
1.46717
1.58559
1.71106
1.844
1.98485
2.13409
2.29221
2.45974
2.63725
2.79572
2.92963
3.06071
3.18902
3.31463
3.43759
3.55796
3.67578
3.79112
3.90403
4.01455
4.12275
4.22865
4.33233
4.43381
4.53315
4.6304
4.72559
4.81878
4.90999
0.531401
0.594846
0.662072
0.733301
0.808774
0.888741
0.973469
1.06324
1.15836
1.25914
1.36592
1.47906
1.59894
1.72595
1.86052
2.0031
2.15417
2.31424
2.48383
2.66352
2.82394
2.95949
3.09218
3.22207
3.34922
3.47369
3.59554
3.71481
3.83157
3.94586
4.05775
4.16727
4.27448
4.37942
4.48216
4.58272
4.68116
4.77752
4.87185
4.96419
0.531789
0.596004
0.664045
0.736139
0.812527
0.893464
0.979221
1.07008
1.16636
1.26836
1.37644
1.49095
1.61228
1.74083
1.87704
2.02135
2.17426
2.33626
2.50792
2.68978
2.85215
2.98935
3.12365
3.25512
3.38381
3.50979
3.63312
3.75384
3.87202
3.9877
4.10094
4.21179
4.3203
4.42652
4.5305
4.63228
4.73192
4.82945
4.92493
5.01839
0.532177
0.597162
0.666018
0.738976
0.81628
0.898188
0.984974
1.07693
1.17435
1.27758
1.38696
1.50284
1.62563
1.75572
1.89356
2.0396
2.19434
2.35829
2.532
2.71605
2.88037
3.01921
3.15512
3.28816
3.4184
3.5459
3.6707
3.79287
3.91246
4.02953
4.14413
4.25631
4.36612
4.47362
4.57884
4.68185
4.78268
4.88138
4.978
5.07258
0.532566
0.598319
0.667991
0.741814
0.820034
0.902912
0.990726
1.08377
1.18235
1.2868
1.39747
1.51473
1.63897
1.77061
1.91008
2.05786
2.21443
2.38032
2.55609
2.74232
2.90858
3.04906
3.18659
3.32121
3.45299
3.582
3.70828
3.8319
3.95291
4.07136
4.18732
4.30083
4.41195
4.52071
4.62719
4.73141
4.83344
4.93331
5.03108
5.12678
0.532954
0.599477
0.669965
0.744652
0.823787
0.907636
0.996478
1.09061
1.19035
1.29602
1.40799
1.52662
1.65232
1.78549
1.9266
2.07611
2.23451
2.40235
2.58018
2.76859
2.9368
3.07892
3.21806
3.35426
3.48758
3.6181
3.74586
3.87093
3.99335
4.1132
4.23051
4.34535
4.45777
4.56781
4.67553
4.78098
4.8842
4.98524
5.08415
5.18097
0.533343
0.600636
0.671938
0.74749
0.827541
0.91236
1.00223
1.09745
1.19834
1.30524
1.4185
1.53851
1.66566
1.80038
1.94312
2.09436
2.2546
2.42438
2.60426
2.79486
2.96501
3.10878
3.24953
3.3873
3.52218
3.6542
3.78344
3.90996
4.0338
4.15503
4.27371
4.38987
4.50359
4.61491
4.72388
4.83054
4.93496
5.03717
5.13723
5.23517
0.533732
0.601794
0.673912
0.750327
0.831295
0.917084
1.00798
1.10429
1.20634
1.31446
1.42902
1.5504
1.679
1.81527
1.95964
2.11261
2.27468
2.4464
2.62835
2.82112
2.99322
3.13864
3.281
3.42035
3.55677
3.6903
3.82102
3.94898
4.07425
4.19687
4.3169
4.4344
4.54942
4.66201
4.77222
4.88011
4.98572
5.0891
5.1903
5.28937
0.534121
0.602952
0.675886
0.753165
0.835048
0.921808
1.01374
1.11114
1.21434
1.32368
1.43954
1.56229
1.69235
1.83015
1.97616
2.13086
2.29477
2.46843
2.65244
2.84739
3.02144
3.1685
3.31247
3.4534
3.59136
3.7264
3.8586
3.98801
4.11469
4.2387
4.36009
4.47892
4.59524
4.7091
4.82057
4.92968
5.03648
5.14103
5.24338
5.34356
0.53451
0.604111
0.67786
0.756003
0.838802
0.926533
1.01949
1.11798
1.22233
1.3329
1.45005
1.57418
1.70569
1.84504
1.99268
2.14911
2.31485
2.49046
2.67652
2.87366
3.04965
3.19836
3.34394
3.48645
3.62595
3.76251
3.89618
4.02704
4.15514
4.28053
4.40328
4.52344
4.64106
4.7562
4.86891
4.97924
5.08724
5.19296
5.29645
5.39776
0.534704
0.604689
0.678845
0.757419
0.840674
0.928888
1.02236
1.12139
1.22632
1.3375
1.45529
1.5801
1.71235
1.85246
2.00091
2.15821
2.32486
2.50144
2.68853
2.88675
3.06371
3.21324
3.35962
3.50291
3.64318
3.7805
3.91491
4.04649
4.17529
4.30138
4.4248
4.54562
4.66389
4.77967
4.893
5.00394
5.11253
5.21884
5.3229
5.42476
0.534704
0.604689
0.678845
0.757419
0.840674
0.928888
1.02236
1.12139
1.22632
1.3375
1.45529
1.5801
1.71235
1.85246
2.00091
2.15821
2.32486
2.50144
2.68853
2.88675
3.06371
3.21324
3.35962
3.50291
3.64318
3.7805
3.91491
4.04649
4.17529
4.30138
4.4248
4.54562
4.66389
4.77967
4.893
5.00394
5.11253
5.21884
5.3229
5.42476
0.534704
0.604689
0.678845
0.757419
0.840674
0.928888
1.02236
1.12139
1.22632
1.3375
1.45529
1.5801
1.71235
1.85246
2.00091
2.15821
2.32486
2.50144
2.68853
2.88675
3.06371
3.21324
3.35962
3.50291
3.64318
3.7805
3.91491
4.04649
4.17529
4.30138
4.4248
4.54562
4.66389
4.77967
4.893
5.00394
5.11253
5.21884
5.3229
5.42476
0.534704
0.604689
0.678845
0.757419
0.840674
0.928888
1.02236
1.12139
1.22632
1.3375
1.45529
1.5801
1.71235
1.85246
2.00091
2.15821
2.32486
2.50144
2.68853
2.88675
3.06371
3.21324
3.35962
3.50291
3.64318
3.7805
3.91491
4.04649
4.17529
4.30138
4.4248
4.54562
4.66389
4.77967
4.893
5.00394
5.11253
5.21884
5.3229
5.42476
0.534704
0.604689
0.678845
0.757419
0.840674
0.928888
1.02236
1.12139
1.22632
1.3375
1.45529
1.5801
1.71235
1.85246
2.00091
2.15821
2.32486
2.50144
2.68853
2.88675
3.06371
3.21324
3.35962
3.50291
3.64318
3.7805
3.91491
4.04649
4.17529
4.30138
4.4248
4.54562
4.66389
4.77967
4.893
5.00394
5.11253
5.21884
5.3229
5.42476
0.534704
0.604689
0.678845
0.757419
0.840674
0.928888
1.02236
1.12139
1.22632
1.3375
1.45529
1.5801
1.71235
1.85246
2.00091
2.15821
2.32486
2.50144
2.68853
2.88675
3.06371
3.21324
3.35962
3.50291
3.64318
3.7805
3.91491
4.04649
4.17529
4.30138
4.4248
4.54562
4.66389
4.77967
4.893
5.00394
5.11253
5.21884
5.3229
5.42476
0.534704
0.604689
0.678845
0.757419
0.840674
0.928888
1.02236
1.12139
1.22632
1.3375
1.45529
1.5801
1.71235
1.85246
2.00091
2.15821
2.32486
2.50144
2.68853
2.88675
3.06371
3.21324
3.35962
3.50291
3.64318
3.7805
3.91491
4.04649
4.17529
4.30138
4.4248
4.54562
4.66389
4.77967
4.893
5.00394
5.11253
5.21884
5.3229
5.42476
0.534704
0.604689
0.678845
0.757419
0.840674
0.928888
1.02236
1.12139
1.22632
1.3375
1.45529
1.5801
1.71235
1.85246
2.00091
2.15821
2.32486
2.50144
2.68853
2.88675
3.06371
3.21324
3.35962
3.50291
3.64318
3.7805
3.91491
4.04649
4.17529
4.30138
4.4248
4.54562
4.66389
4.77967
4.893
5.00394
5.11253
5.21884
5.3229
5.42476
0.534704
0.604689
0.678845
0.757419
0.840674
0.928888
1.02236
1.12139
1.22632
1.3375
1.45529
1.5801
1.71235
1.85246
2.00091
2.15821
2.32486
2.50144
2.68853
2.88675
3.06371
3.21324
3.35962
3.50291
3.64318
3.7805
3.91491
4.04649
4.17529
4.30138
4.4248
4.54562
4.66389
4.77967
4.893
5.00394
5.11253
5.21884
5.3229
5.42476
0.534704
0.604689
0.678845
0.757419
0.840674
0.928888
1.02236
1.12139
1.22632
1.3375
1.45529
1.5801
1.71235
1.85246
2.00091
2.15821
2.32486
2.50144
2.68853
2.88675
3.06371
3.21324
3.35962
3.50291
3.64318
3.7805
3.91491
4.04649
4.17529
4.30138
4.4248
4.54562
4.66389
4.77967
4.893
5.00394
5.11253
5.21884
5.3229
5.42476
0.534704
0.604689
0.678845
0.757419
0.840674
0.928888
1.02236
1.12139
1.22632
1.3375
1.45529
1.5801
1.71235
1.85246
2.00091
2.15821
2.32486
2.50144
2.68853
2.88675
3.06371
3.21324
3.35962
3.50291
3.64318
3.7805
3.91491
4.04649
4.17529
4.30138
4.4248
4.54562
4.66389
4.77967
4.893
5.00394
5.11253
5.21884
5.3229
5.42476
0.534704
0.604689
0.678845
0.757419
0.840674
0.928888
1.02236
1.12139
1.22632
1.3375
1.45529
1.5801
1.71235
1.85246
2.00091
2.15821
2.32486
2.50144
2.68853
2.88675
3.06371
3.21324
3.35962
3.50291
3.64318
3.7805
3.91491
4.04649
4.17529
4.30138
4.4248
4.54562
4.66389
4.77967
4.893
5.00394
5.11253
5.21884
5.3229
5.42476
0.534704
0.604689
0.678845
0.757419
0.840674
0.928888
1.02236
1.12139
1.22632
1.3375
1.45529
1.5801
1.71235
1.85246
2.00091
2.15821
2.32486
2.50144
2.68853
2.88675
3.06371
3.21324
3.35962
3.50291
3.64318
3.7805
3.91491
4.04649
4.17529
4.30138
4.4248
4.54562
4.66389
4.77967
4.893
5.00394
5.11253
5.21884
5.3229
5.42476
0.534704
0.604689
0.678845
0.757419
0.840674
0.928888
1.02236
1.12139
1.22632
1.3375
1.45529
1.5801
1.71235
1.85246
2.00091
2.15821
2.32486
2.50144
2.68853
2.88675
3.06371
3.21324
3.35962
3.50291
3.64318
3.7805
3.91491
4.04649
4.17529
4.30138
4.4248
4.54562
4.66389
4.77967
4.893
5.00394
5.11253
5.21884
5.3229
5.42476
0.534704
0.604689
0.678845
0.757419
0.840674
0.928888
1.02236
1.12139
1.22632
1.3375
1.45529
1.5801
1.71235
1.85246
2.00091
2.15821
2.32486
2.50144
2.68853
2.88675
3.06371
3.21324
3.35962
3.50291
3.64318
3.7805
3.91491
4.04649
4.17529
4.30138
4.4248
4.54562
4.66389
4.77967
4.893
5.00394
5.11253
5.21884
5.3229
5.42476
0.534704
0.604689
0.678845
0.757419
0.840674
0.928888
1.02236
1.12139
1.22632
1.3375
1.45529
1.5801
1.71235
1.85246
2.00091
2.15821
2.32486
2.50144
2.68853
2.88675
3.06371
3.21324
3.35962
3.50291
3.64318
3.7805
3.91491
4.04649
4.17529
4.30138
4.4248
4.54562
4.66389
4.77967
4.893
5.00394
5.11253
5.21884
5.3229
5.42476
0.534704
0.604689
0.678845
0.757419
0.840674
0.928888
1.02236
1.12139
1.22632
1.3375
1.45529
1.5801
1.71235
1.85246
2.00091
2.15821
2.32486
2.50144
2.68853
2.88675
3.06371
3.21324
3.35962
3.50291
3.64318
3.7805
3.91491
4.04649
4.17529
4.30138
4.4248
4.54562
4.66389
4.77967
4.893
5.00394
5.11253
5.21884
5.3229
5.42476
0.534704
0.604689
0.678845
0.757419
0.840674
0.928888
1.02236
1.12139
1.22632
1.3375
1.45529
1.5801
1.71235
1.85246
2.00091
2.15821
2.32486
2.50144
2.68853
2.88675
3.06371
3.21324
3.35962
3.50291
3.64318
3.7805
3.91491
4.04649
4.17529
4.30138
4.4248
4.54562
4.66389
4.77967
4.893
5.00394
5.11253
5.21884
5.3229
5.42476
0.534704
0.604689
0.678845
0.757419
0.840674
0.928888
1.02236
1.12139
1.22632
1.3375
1.45529
1.5801
1.71235
1.85246
2.00091
2.15821
2.32486
2.50144
2.68853
2.88675
3.06371
3.21324
3.35962
3.50291
3.64318
3.7805
3.91491
4.04649
4.17529
4.30138
4.4248
4.54562
4.66389
4.77967
4.893
5.00394
5.11253
5.21884
5.3229
5.42476
0.534704
0.604689
0.678845
0.757419
0.840674
0.928888
1.02236
1.12139
1.22632
1.3375
1.45529
1.5801
1.71235
1.85246
2.00091
2.15821
2.32486
2.50144
2.68853
2.88675
3.06371
3.21324
3.35962
3.50291
3.64318
3.7805
3.91491
4.04649
4.17529
4.30138
4.4248
4.54562
4.66389
4.77967
4.893
5.00394
5.11253
5.21884
5.3229
5.42476
0.534704
0.604689
0.678845
0.757419
0.840674
0.928888
1.02236
1.12139
1.22632
1.3375
1.45529
1.5801
1.71235
1.85246
2.00091
2.15821
2.32486
2.50144
2.68853
2.88675
3.06371
3.21324
3.35962
3.50291
3.64318
3.7805
3.91491
4.04649
4.17529
4.30138
4.4248
4.54562
4.66389
4.77967
4.893
5.00394
5.11253
5.21884
5.3229
5.42476
4.42746
4.48221
4.53696
4.59171
4.64646
4.70121
4.75596
4.8107
4.86545
4.9202
4.97495
5.0297
5.08445
5.1392
5.19395
5.2487
5.30345
5.3582
5.41295
5.4677
4.56786
4.81034
5.05974
5.31627
5.58012
5.85152
6.13067
6.4178
6.71313
7.0169
7.32935
7.65072
7.98128
8.32128
8.67099
9.0307
9.40068
9.78123
10.1726
10.5753
10.9894
11.4153
11.8534
12.304
12.7675
13.2442
13.7346
14.2389
14.7577
15.2912
15.8401
16.4045
16.9851
17.5823
18.1966
18.8284
19.4782
20.1465
20.834
21.5411
4.62222
4.86393
5.11255
5.36828
5.63131
5.90185
6.18013
6.46636
6.76076
7.06358
7.37505
7.69541
8.02493
8.36387
8.71248
9.07106
9.43988
9.81923
10.2094
10.6108
11.0236
11.4482
11.8849
12.3341
12.7961
13.2714
13.7602
14.2629
14.7801
15.312
15.8591
16.4218
17.0006
17.5959
18.2082
18.838
19.4858
20.152
20.8373
21.5422
4.67658
4.91753
5.16537
5.42029
5.68249
5.95219
6.22959
6.51491
6.80839
7.11026
7.42075
7.7401
8.06859
8.40645
8.75397
9.11142
9.47908
9.85724
10.2462
10.6463
11.0578
11.4811
11.9164
12.3642
12.8248
13.2985
13.7858
14.287
14.8025
15.3327
15.8781
16.439
17.016
17.6094
18.2198
18.8476
19.4933
20.1575
20.8407
21.5433
4.73093
4.97113
5.21818
5.4723
5.73367
6.00252
6.27904
6.56347
6.85602
7.15694
7.46644
7.78479
8.11224
8.44904
8.79546
9.15178
9.51828
9.89525
10.283
10.6818
11.092
11.5139
11.9479
12.3943
12.8534
13.3257
13.8114
14.311
14.8249
15.3534
15.8971
16.4562
17.0314
17.6229
18.2314
18.8572
19.5009
20.163
20.844
21.5444
4.78529
5.02472
5.271
5.52431
5.78486
6.05285
6.3285
6.61203
6.90366
7.20361
7.51214
7.82949
8.15589
8.49163
8.83695
9.19215
9.55748
9.93326
10.3198
10.7173
11.1262
11.5468
11.9794
12.4244
12.8821
13.3528
13.837
14.335
14.8473
15.3741
15.9161
16.4735
17.0468
17.6365
18.243
18.8669
19.5085
20.1685
20.8473
21.5455
4.83965
5.07832
5.32381
5.57632
5.83604
6.10319
6.37796
6.66059
6.95129
7.25029
7.55784
7.87418
8.19955
8.53422
8.87844
9.23251
9.59669
9.97127
10.3565
10.7528
11.1604
11.5797
12.0109
12.4545
12.9107
13.3799
13.8626
14.359
14.8697
15.3949
15.9351
16.4907
17.0622
17.65
18.2546
18.8765
19.5161
20.174
20.8507
21.5466
4.89401
5.13192
5.37663
5.62833
5.88723
6.15352
6.42742
6.70914
6.99892
7.29697
7.60354
7.91887
8.2432
8.5768
8.91994
9.27287
9.63589
10.0093
10.3933
10.7884
11.1947
11.6126
12.0424
12.4846
12.9393
13.4071
13.8882
14.3831
14.892
15.4156
15.9541
16.5079
17.0776
17.6635
18.2662
18.8861
19.5237
20.1795
20.854
21.5478
4.94836
5.18552
5.42945
5.68034
5.93841
6.20385
6.47688
6.7577
7.04655
7.34365
7.64924
7.96356
8.28686
8.61939
8.96143
9.31323
9.67509
10.0473
10.4301
10.8239
11.2289
11.6455
12.0739
12.5147
12.968
13.4342
13.9138
14.4071
14.9144
15.4363
15.9731
16.5251
17.093
17.6771
18.2778
18.8957
19.5313
20.185
20.8573
21.5489
5.00272
5.23912
5.48226
5.73236
5.9896
6.25419
6.52634
6.80626
7.09418
7.39033
7.69494
8.00825
8.33051
8.66198
9.00292
9.3536
9.71429
10.0853
10.4669
10.8594
11.2631
11.6783
12.1055
12.5448
12.9966
13.4614
13.9394
14.4311
14.9368
15.457
15.9921
16.5424
17.1084
17.6906
18.2894
18.9054
19.5389
20.1905
20.8607
21.55
5.05708
5.29271
5.53508
5.78437
6.04078
6.30452
6.57579
6.85482
7.14181
7.43701
7.74064
8.05294
8.37417
8.70457
9.04441
9.39396
9.75349
10.1233
10.5037
10.8949
11.2973
11.7112
12.137
12.5749
13.0253
13.4885
13.965
14.4551
14.9592
15.4777
16.0111
16.5596
17.1238
17.7041
18.301
18.915
19.5465
20.1959
20.864
21.5511
5.11144
5.34631
5.5879
5.83638
6.09197
6.35485
6.62525
6.90338
7.18945
7.48369
7.78634
8.09763
8.41782
8.74716
9.0859
9.43432
9.7927
10.1613
10.5405
10.9304
11.3315
11.7441
12.1685
12.6049
13.0539
13.5157
13.9906
14.4792
14.9816
15.4985
16.0301
16.5768
17.1392
17.7177
18.3127
18.9246
19.554
20.2014
20.8673
21.5522
5.1658
5.39991
5.64071
5.8884
6.14315
6.40519
6.67471
6.95194
7.23708
7.53037
7.83204
8.14232
8.46148
8.78974
9.12739
9.47468
9.8319
10.1993
10.5772
10.9659
11.3658
11.777
12.2
12.635
13.0825
13.5428
14.0162
14.5032
15.004
15.5192
16.0491
16.5941
17.1546
17.7312
18.3243
18.9342
19.5616
20.2069
20.8707
21.5533
5.22016
5.45351
5.69353
5.94041
6.19434
6.45552
6.72417
7.00049
7.28471
7.57705
7.87774
8.18702
8.50513
8.83233
9.16888
9.51505
9.8711
10.2373
10.614
11.0015
11.4
11.8099
12.2315
12.6651
13.1112
13.57
14.0418
14.5272
15.0264
15.5399
16.0681
16.6113
17.17
17.7448
18.3359
18.9439
19.5692
20.2124
20.874
21.5544
5.27452
5.50711
5.74635
5.99242
6.24553
6.50586
6.77363
7.04905
7.33234
7.62373
7.92344
8.23171
8.54879
8.87492
9.21038
9.55541
9.9103
10.2753
10.6508
11.037
11.4342
11.8428
12.263
12.6952
13.1398
13.5971
14.0675
14.5512
15.0488
15.5606
16.0871
16.6285
17.1855
17.7583
18.3475
18.9535
19.5768
20.2179
20.8773
21.5555
5.32888
5.56071
5.79917
6.04444
6.29671
6.5562
6.82309
7.09761
7.37998
7.67041
7.96914
8.2764
8.59244
8.91751
9.25187
9.59578
9.94951
10.3133
10.6876
11.0725
11.4684
11.8756
12.2945
12.7253
13.1685
13.6243
14.0931
14.5753
15.0712
15.5814
16.1061
16.6458
17.2009
17.7718
18.3591
18.9631
19.5844
20.2234
20.8806
21.5567
5.38324
5.61432
5.85199
6.09645
6.3479
6.60653
6.87255
7.14617
7.42761
7.71709
8.01484
8.32109
8.6361
8.9601
9.29336
9.63614
9.98871
10.3514
10.7244
11.108
11.5026
11.9085
12.326
12.7554
13.1971
13.6514
14.1187
14.5993
15.0936
15.6021
16.1251
16.663
17.2163
17.7854
18.3707
18.9727
19.592
20.2289
20.884
21.5578
5.43761
5.66792
5.90481
6.14847
6.39909
6.65687
6.92201
7.19473
7.47524
7.76377
8.06054
8.36578
8.67975
9.00269
9.33485
9.6765
10.0279
10.3894
10.7611
11.1435
11.5369
11.9414
12.3575
12.7855
13.2257
13.6785
14.1443
14.6233
15.116
15.6228
16.1441
16.6802
17.2317
17.7989
18.3823
18.9824
19.5996
20.2344
20.8873
21.5589
5.49197
5.72152
5.95763
6.20048
6.45027
6.7072
6.97147
7.24329
7.52288
7.81045
8.10624
8.41048
8.72341
9.04528
9.37634
9.71687
10.0671
10.4274
10.7979
11.1791
11.5711
11.9743
12.389
12.8156
13.2544
13.7057
14.1699
14.6473
15.1384
15.6435
16.1631
16.6975
17.2471
17.8124
18.3939
18.992
19.6071
20.2399
20.8906
21.56
5.54633
5.77512
6.01045
6.2525
6.50146
6.75754
7.02093
7.29185
7.57051
7.85713
8.15194
8.45517
8.76706
9.08787
9.41784
9.75723
10.1063
10.4654
10.8347
11.2146
11.6053
12.0072
12.4205
12.8457
13.283
13.7328
14.1955
14.6714
15.1608
15.6643
16.1821
16.7147
17.2625
17.826
18.4055
19.0016
19.6147
20.2454
20.894
21.5611
5.60069
5.82872
6.06327
6.30451
6.55265
6.80788
7.07039
7.34041
7.61815
7.90381
8.19764
8.49986
8.81072
9.13046
9.45933
9.79759
10.1455
10.5034
10.8715
11.2501
11.6395
12.0401
12.4521
12.8758
13.3117
13.76
14.2211
14.6954
15.1832
15.685
16.2011
16.7319
17.2779
17.8395
18.4171
19.0112
19.6223
20.2508
20.8973
21.5622
5.62805
5.85572
6.08988
6.33074
6.57849
6.83331
7.09541
7.365
7.64229
7.9275
8.22086
8.52261
8.83297
9.15221
9.48056
9.8183
10.1657
10.523
10.8905
11.2685
11.6573
12.0573
12.4686
12.8917
13.3269
13.7746
14.235
14.7085
15.1957
15.6967
16.212
16.7421
17.2873
17.848
18.4248
19.0181
19.6284
20.256
20.9016
21.5657
5.62805
5.85572
6.08988
6.33074
6.57849
6.83331
7.09541
7.365
7.64229
7.9275
8.22086
8.52261
8.83297
9.15221
9.48056
9.8183
10.1657
10.523
10.8905
11.2685
11.6573
12.0573
12.4686
12.8917
13.3269
13.7746
14.235
14.7085
15.1957
15.6967
16.212
16.7421
17.2873
17.848
18.4248
19.0181
19.6284
20.256
20.9016
21.5657
5.62805
5.85572
6.08988
6.33074
6.57849
6.83331
7.09541
7.365
7.64229
7.9275
8.22086
8.52261
8.83297
9.15221
9.48056
9.8183
10.1657
10.523
10.8905
11.2685
11.6573
12.0573
12.4686
12.8917
13.3269
13.7746
14.235
14.7085
15.1957
15.6967
16.212
16.7421
17.2873
17.848
18.4248
19.0181
19.6284
20.256
20.9016
21.5657
5.62805
5.85572
6.08988
6.33074
6.57849
6.83331
7.09541
7.365
7.64229
7.9275
8.22086
8.52261
8.83297
9.15221
9.48056
9.8183
10.1657
10.523
10.8905
11.2685
11.6573
12.0573
12.4686
12.8917
13.3269
13.7746
14.235
14.7085
15.1957
15.6967
16.212
16.7421
17.2873
17.848
18.4248
19.0181
19.6284
20.256
20.9016
21.5657
5.62805
5.85572
6.08988
6.33074
6.57849
6.83331
7.09541
7.365
7.64229
7.9275
8.22086
8.52261
8.83297
9.15221
9.48056
9.8183
10.1657
10.523
10.8905
11.2685
11.6573
12.0573
12.4686
12.8917
13.3269
13.7746
14.235
14.7085
15.1957
15.6967
16.212
16.7421
17.2873
17.848
18.4248
19.0181
19.6284
20.256
20.9016
21.5657
5.62805
5.85572
6.08988
6.33074
6.57849
6.83331
7.09541
7.365
7.64229
7.9275
8.22086
8.52261
8.83297
9.15221
9.48056
9.8183
10.1657
10.523
10.8905
11.2685
11.6573
12.0573
12.4686
12.8917
13.3269
13.7746
14.235
14.7085
15.1957
15.6967
16.212
16.7421
17.2873
17.848
18.4248
19.0181
19.6284
20.256
20.9016
21.5657
5.62805
5.85572
6.08988
6.33074
6.57849
6.83331
7.09541
7.365
7.64229
7.9275
8.22086
8.52261
8.83297
9.15221
9.48056
9.8183
10.1657
10.523
10.8905
11.2685
11.6573
12.0573
12.4686
12.8917
13.3269
13.7746
14.235
14.7085
15.1957
15.6967
16.212
16.7421
17.2873
17.848
18.4248
19.0181
19.6284
20.256
20.9016
21.5657
5.62805
5.85572
6.08988
6.33074
6.57849
6.83331
7.09541
7.365
7.64229
7.9275
8.22086
8.52261
8.83297
9.15221
9.48056
9.8183
10.1657
10.523
10.8905
11.2685
11.6573
12.0573
12.4686
12.8917
13.3269
13.7746
14.235
14.7085
15.1957
15.6967
16.212
16.7421
17.2873
17.848
18.4248
19.0181
19.6284
20.256
20.9016
21.5657
5.62805
5.85572
6.08988
6.33074
6.57849
6.83331
7.09541
7.365
7.64229
7.9275
8.22086
8.52261
8.83297
9.15221
9.48056
9.8183
10.1657
10.523
10.8905
11.2685
11.6573
12.0573
12.4686
12.8917
13.3269
13.7746
14.235
14.7085
15.1957
15.6967
16.212
16.7421
17.2873
17.848
18.4248
19.0181
19.6284
20.256
20.9016
21.5657
5.62805
5.85572
6.08988
6.33074
6.57849
6.83331
7.09541
7.365
7.64229
7.9275
8.22086
8.52261
8.83297
9.15221
9.48056
9.8183
10.1657
10.523
10.8905
11.2685
11.6573
12.0573
12.4686
12.8917
13.3269
13.7746
14.235
14.7085
15.1957
15.6967
16.212
16.7421
17.2873
17.848
18.4248
19.0181
19.6284
20.256
20.9016
21.5657
5.62805
5.85572
6.08988
6.33074
6.57849
6.83331
7.09541
7.365
7.64229
7.9275
8.22086
8.52261
8.83297
9.15221
9.48056
9.8183
10.1657
10.523
10.8905
11.2685
11.6573
12.0573
12.4686
12.8917
13.3269
13.7746
14.235
14.7085
15.1957
15.6967
16.212
16.7421
17.2873
17.848
18.4248
19.0181
19.6284
20.256
20.9016
21.5657
5.62805
5.85572
6.08988
6.33074
6.57849
6.83331
7.09541
7.365
7.64229
7.9275
8.22086
8.52261
8.83297
9.15221
9.48056
9.8183
10.1657
10.523
10.8905
11.2685
11.6573
12.0573
12.4686
12.8917
13.3269
13.7746
14.235
14.7085
15.1957
15.6967
16.212
16.7421
17.2873
17.848
18.4248
19.0181
19.6284
20.256
20.9016
21.5657
5.62805
5.85572
6.08988
6.33074
6.57849
6.83331
7.09541
7.365
7.64229
7.9275
8.22086
8.52261
8.83297
9.15221
9.48056
9.8183
10.1657
10.523
10.8905
11.2685
11.6573
12.0573
12.4686
12.8917
13.3269
13.7746
14.235
14.7085
15.1957
15.6967
16.212
16.7421
17.2873
17.848
18.4248
19.0181
19.6284
20.256
20.9016
21.5657
5.62805
5.85572
6.08988
6.33074
6.57849
6.83331
7.09541
7.365
7.64229
7.9275
8.22086
8.52261
8.83297
9.15221
9.48056
9.8183
10.1657
10.523
10.8905
11.2685
11.6573
12.0573
12.4686
12.8917
13.3269
13.7746
14.235
14.7085
15.1957
15.6967
16.212
16.7421
17.2873
17.848
18.4248
19.0181
19.6284
20.256
20.9016
21.5657
5.62805
5.85572
6.08988
6.33074
6.57849
6.83331
7.09541
7.365
7.64229
7.9275
8.22086
8.52261
8.83297
9.15221
9.48056
9.8183
10.1657
10.523
10.8905
11.2685
11.6573
12.0573
12.4686
12.8917
13.3269
13.7746
14.235
14.7085
15.1957
15.6967
16.212
16.7421
17.2873
17.848
18.4248
19.0181
19.6284
20.256
20.9016
21.5657
5.62805
5.85572
6.08988
6.33074
6.57849
6.83331
7.09541
7.365
7.64229
7.9275
8.22086
8.52261
8.83297
9.15221
9.48056
9.8183
10.1657
10.523
10.8905
11.2685
11.6573
12.0573
12.4686
12.8917
13.3269
13.7746
14.235
14.7085
15.1957
15.6967
16.212
16.7421
17.2873
17.848
18.4248
19.0181
19.6284
20.256
20.9016
21.5657
5.62805
5.85572
6.08988
6.33074
6.57849
6.83331
7.09541
7.365
7.64229
7.9275
8.22086
8.52261
8.83297
9.15221
9.48056
9.8183
10.1657
10.523
10.8905
11.2685
11.6573
12.0573
12.4686
12.8917
13.3269
13.7746
14.235
14.7085
15.1957
15.6967
16.212
16.7421
17.2873
17.848
18.4248
19.0181
19.6284
20.256
20.9016
21.5657
5.62805
5.85572
6.08988
6.33074
6.57849
6.83331
7.09541
7.365
7.64229
7.9275
8.22086
8.52261
8.83297
9.15221
9.48056
9.8183
10.1657
10.523
10.8905
11.2685
11.6573
12.0573
12.4686
12.8917
13.3269
13.7746
14.235
14.7085
15.1957
15.6967
16.212
16.7421
17.2873
17.848
18.4248
19.0181
19.6284
20.256
20.9016
21.5657
5.62805