/*--------------------------------*- C++ -*----------------------------------*\
| =========                 |                                                 |
| \\      /  F ield         | OpenFOAM: The Open Source CFD Toolbox           |
|  \\    /   O peration     | Version:  2312                                  |
|   \\  /    A nd           | Website:  www.openfoam.com                      |
|    \\/     M anipulation  |                                                 |
\*---------------------------------------------------------------------------*/
FoamFile
{
    version     2.0;
    format      ascii;
    arch        "LSB;label=32;scalar=64";
    class       volScalarField;
    location    "constant";
    object      Cy;
}
// * * * * * * * * * * * * * * * * * * * * * * * * * * * * * * * * * * * * * //

dimensions      [0 1 0 0 0 0 0];

internalField   nonuniform List<scalar> 
3780
(
0.0435789
0.0435992
0.0436185
0.0436369
0.0436544
0.0436711
0.0436869
0.043702
0.0437162
0.0437298
0.0437427
0.0437549
0.0437665
0.0437775
0.0437879
0.0437978
0.0438072
0.0438161
0.0438245
0.0438325
0.0438389
0.0438439
0.0438484
0.0438525
0.0438563
0.0438597
0.0438629
0.0438659
0.0438686
0.0438712
0.0438735
0.0438757
0.0438778
0.0438798
0.0438816
0.0438833
0.0438849
0.0438864
0.0438879
0.0438892
0.132748
0.132771
0.132793
0.132814
0.132833
0.132851
0.132869
0.132885
0.132901
0.132915
0.132929
0.132943
0.132955
0.132967
0.132978
0.132988
0.132998
0.133008
0.133017
0.133025
0.133032
0.133037
0.133042
0.133046
0.13305
0.133054
0.133057
0.13306
0.133063
0.133066
0.133068
0.13307
0.133073
0.133075
0.133076
0.133078
0.13308
0.133082
0.133083
0.133084
0.227718
0.227744
0.227768
0.227791
0.227812
0.227833
0.227852
0.22787
0.227887
0.227903
0.227918
0.227932
0.227945
0.227958
0.22797
0.227981
0.227991
0.228001
0.228011
0.228019
0.228026
0.228032
0.228037
0.228041
0.228046
0.228049
0.228053
0.228056
0.228059
0.228062
0.228064
0.228067
0.228069
0.228071
0.228073
0.228075
0.228077
0.228078
0.22808
0.228081
0.328864
0.328893
0.32892
0.328946
0.32897
0.328992
0.329013
0.329033
0.329051
0.329068
0.329084
0.3291
0.329114
0.329127
0.32914
0.329152
0.329163
0.329173
0.329183
0.329193
0.3292
0.329206
0.329211
0.329216
0.32922
0.329224
0.329228
0.329231
0.329234
0.329237
0.329239
0.329242
0.329244
0.329246
0.329248
0.32925
0.329252
0.329254
0.329255
0.329257
0.436589
0.436622
0.436653
0.436681
0.436707
0.436732
0.436755
0.436776
0.436796
0.436815
0.436832
0.436848
0.436864
0.436878
0.436891
0.436904
0.436916
0.436927
0.436937
0.436947
0.436954
0.43696
0.436966
0.436971
0.436975
0.436979
0.436983
0.436987
0.43699
0.436993
0.436995
0.436998
0.437
0.437003
0.437005
0.437007
0.437009
0.43701
0.437012
0.437014
0.551321
0.551358
0.551392
0.551424
0.551453
0.55148
0.551505
0.551528
0.55155
0.55157
0.551588
0.551606
0.551622
0.551637
0.551651
0.551665
0.551677
0.551689
0.551699
0.55171
0.551718
0.551724
0.55173
0.551735
0.551739
0.551744
0.551747
0.551751
0.551754
0.551757
0.55176
0.551763
0.551765
0.551768
0.55177
0.551772
0.551774
0.551776
0.551777
0.551779
0.673516
0.673557
0.673595
0.67363
0.673662
0.673692
0.673719
0.673744
0.673768
0.673789
0.673809
0.673828
0.673845
0.673861
0.673876
0.67389
0.673903
0.673915
0.673927
0.673937
0.673946
0.673952
0.673958
0.673963
0.673968
0.673973
0.673977
0.67398
0.673984
0.673987
0.67399
0.673993
0.673995
0.673998
0.674
0.674002
0.674004
0.674006
0.674008
0.674009
0.803658
0.803705
0.803747
0.803786
0.803821
0.803853
0.803883
0.80391
0.803936
0.803959
0.80398
0.804
0.804018
0.804035
0.804051
0.804066
0.804079
0.804092
0.804104
0.804115
0.804124
0.804131
0.804137
0.804142
0.804147
0.804152
0.804156
0.80416
0.804163
0.804167
0.80417
0.804173
0.804175
0.804178
0.80418
0.804182
0.804184
0.804186
0.804188
0.80419
0.942265
0.942318
0.942365
0.942408
0.942447
0.942482
0.942514
0.942544
0.942571
0.942595
0.942618
0.942639
0.942659
0.942677
0.942693
0.942709
0.942723
0.942736
0.942749
0.94276
0.94277
0.942777
0.942783
0.942789
0.942794
0.942798
0.942803
0.942807
0.94281
0.942814
0.942817
0.94282
0.942822
0.942825
0.942827
0.94283
0.942832
0.942834
0.942835
0.942837
1.08989
1.08995
1.09
1.09005
1.09009
1.09013
1.09016
1.09019
1.09022
1.09025
1.09027
1.0903
1.09032
1.09034
1.09035
1.09037
1.09038
1.0904
1.09041
1.09042
1.09043
1.09044
1.09045
1.09045
1.09046
1.09046
1.09047
1.09047
1.09048
1.09048
1.09048
1.09049
1.09049
1.09049
1.09049
1.0905
1.0905
1.0905
1.0905
1.0905
1.24711
1.24718
1.24724
1.24729
1.24734
1.24738
1.24742
1.24745
1.24748
1.24751
1.24754
1.24756
1.24758
1.2476
1.24762
1.24764
1.24765
1.24767
1.24768
1.24769
1.2477
1.24771
1.24772
1.24772
1.24773
1.24773
1.24774
1.24774
1.24774
1.24775
1.24775
1.24775
1.24776
1.24776
1.24776
1.24777
1.24777
1.24777
1.24777
1.24777
1.41456
1.41464
1.4147
1.41476
1.41481
1.41486
1.4149
1.41493
1.41497
1.415
1.41503
1.41505
1.41507
1.41509
1.41511
1.41513
1.41515
1.41516
1.41518
1.41519
1.4152
1.41521
1.41521
1.41522
1.41523
1.41523
1.41524
1.41524
1.41524
1.41525
1.41525
1.41525
1.41526
1.41526
1.41526
1.41526
1.41527
1.41527
1.41527
1.41527
1.60107
1.60109
1.60111
1.60112
1.60114
1.60115
1.60116
1.60117
1.60118
1.60119
1.6012
1.6012
1.60121
1.60122
1.60122
1.60123
1.60123
1.60123
1.60124
1.60124
1.60124
1.60125
1.60125
1.60125
1.60125
1.60125
1.60125
1.60126
1.60126
1.60126
1.60126
1.60126
1.60126
1.60126
1.60126
1.60126
1.60126
1.60126
1.60126
1.60126
1.8027
1.80273
1.80274
1.80276
1.80277
1.80279
1.8028
1.80281
1.80282
1.80282
1.80283
1.80284
1.80285
1.80285
1.80286
1.80286
1.80287
1.80287
1.80287
1.80288
1.80288
1.80288
1.80288
1.80288
1.80289
1.80289
1.80289
1.80289
1.80289
1.80289
1.80289
1.80289
1.80289
1.80289
1.8029
1.8029
1.8029
1.8029
1.8029
1.8029
2.00434
2.00436
2.00438
2.0044
2.00441
2.00442
2.00443
2.00444
2.00445
2.00446
2.00447
2.00447
2.00448
2.00449
2.00449
2.0045
2.0045
2.0045
2.00451
2.00451
2.00451
2.00452
2.00452
2.00452
2.00452
2.00452
2.00452
2.00452
2.00453
2.00453
2.00453
2.00453
2.00453
2.00453
2.00453
2.00453
2.00453
2.00453
2.00453
2.00453
2.20598
2.206
2.20602
2.20603
2.20605
2.20606
2.20607
2.20608
2.20609
2.2061
2.2061
2.20611
2.20612
2.20612
2.20613
2.20613
2.20614
2.20614
2.20614
2.20615
2.20615
2.20615
2.20615
2.20615
2.20616
2.20616
2.20616
2.20616
2.20616
2.20616
2.20616
2.20616
2.20616
2.20616
2.20616
2.20617
2.20617
2.20617
2.20617
2.20617
2.40762
2.40764
2.40765
2.40767
2.40768
2.4077
2.40771
2.40772
2.40773
2.40773
2.40774
2.40775
2.40775
2.40776
2.40776
2.40777
2.40777
2.40777
2.40778
2.40778
2.40778
2.40779
2.40779
2.40779
2.40779
2.40779
2.40779
2.40779
2.40779
2.4078
2.4078
2.4078
2.4078
2.4078
2.4078
2.4078
2.4078
2.4078
2.4078
2.4078
2.60925
2.60927
2.60929
2.60931
2.60932
2.60933
2.60934
2.60935
2.60936
2.60937
2.60938
2.60938
2.60939
2.60939
2.6094
2.6094
2.60941
2.60941
2.60941
2.60942
2.60942
2.60942
2.60942
2.60942
2.60943
2.60943
2.60943
2.60943
2.60943
2.60943
2.60943
2.60943
2.60943
2.60943
2.60943
2.60943
2.60944
2.60944
2.60944
2.60944
2.81089
2.81091
2.81093
2.81094
2.81096
2.81097
2.81098
2.81099
2.811
2.81101
2.81101
2.81102
2.81102
2.81103
2.81103
2.81104
2.81104
2.81105
2.81105
2.81105
2.81105
2.81106
2.81106
2.81106
2.81106
2.81106
2.81106
2.81106
2.81106
2.81107
2.81107
2.81107
2.81107
2.81107
2.81107
2.81107
2.81107
2.81107
2.81107
2.81107
3.01253
3.01255
3.01257
3.01258
3.01259
3.01261
3.01262
3.01263
3.01263
3.01264
3.01265
3.01265
3.01266
3.01266
3.01267
3.01267
3.01268
3.01268
3.01268
3.01269
3.01269
3.01269
3.01269
3.01269
3.0127
3.0127
3.0127
3.0127
3.0127
3.0127
3.0127
3.0127
3.0127
3.0127
3.0127
3.0127
3.01271
3.01271
3.01271
3.01271
3.21416
3.21418
3.2142
3.21422
3.21423
3.21424
3.21425
3.21426
3.21427
3.21428
3.21428
3.21429
3.2143
3.2143
3.21431
3.21431
3.21431
3.21432
3.21432
3.21432
3.21433
3.21433
3.21433
3.21433
3.21433
3.21433
3.21433
3.21433
3.21434
3.21434
3.21434
3.21434
3.21434
3.21434
3.21434
3.21434
3.21434
3.21434
3.21434
3.21434
3.4158
3.41582
3.41584
3.41586
3.41587
3.41588
3.41589
3.4159
3.41591
3.41591
3.41592
3.41593
3.41593
3.41594
3.41594
3.41595
3.41595
3.41595
3.41596
3.41596
3.41596
3.41596
3.41596
3.41597
3.41597
3.41597
3.41597
3.41597
3.41597
3.41597
3.41597
3.41597
3.41597
3.41597
3.41597
3.41598
3.41598
3.41598
3.41598
3.41598
3.61744
3.61746
3.61748
3.61749
3.61751
3.61752
3.61753
3.61754
3.61754
3.61755
3.61756
3.61756
3.61757
3.61757
3.61758
3.61758
3.61759
3.61759
3.61759
3.61759
3.6176
3.6176
3.6176
3.6176
3.6176
3.6176
3.6176
3.61761
3.61761
3.61761
3.61761
3.61761
3.61761
3.61761
3.61761
3.61761
3.61761
3.61761
3.61761
3.61761
3.81908
3.8191
3.81911
3.81913
3.81914
3.81915
3.81916
3.81917
3.81918
3.81919
3.81919
3.8192
3.8192
3.81921
3.81921
3.81922
3.81922
3.81922
3.81923
3.81923
3.81923
3.81923
3.81924
3.81924
3.81924
3.81924
3.81924
3.81924
3.81924
3.81924
3.81924
3.81924
3.81924
3.81925
3.81925
3.81925
3.81925
3.81925
3.81925
3.81925
4.02071
4.02073
4.02075
4.02077
4.02078
4.02079
4.0208
4.02081
4.02082
4.02082
4.02083
4.02084
4.02084
4.02085
4.02085
4.02085
4.02086
4.02086
4.02086
4.02087
4.02087
4.02087
4.02087
4.02087
4.02087
4.02088
4.02088
4.02088
4.02088
4.02088
4.02088
4.02088
4.02088
4.02088
4.02088
4.02088
4.02088
4.02088
4.02088
4.02088
4.22235
4.22237
4.22239
4.2224
4.22242
4.22243
4.22244
4.22245
4.22245
4.22246
4.22247
4.22247
4.22248
4.22248
4.22249
4.22249
4.22249
4.2225
4.2225
4.2225
4.2225
4.22251
4.22251
4.22251
4.22251
4.22251
4.22251
4.22251
4.22251
4.22251
4.22252
4.22252
4.22252
4.22252
4.22252
4.22252
4.22252
4.22252
4.22252
4.22252
4.42399
4.42401
4.42403
4.42404
4.42405
4.42407
4.42408
4.42408
4.42409
4.4241
4.4241
4.42411
4.42411
4.42412
4.42412
4.42413
4.42413
4.42413
4.42414
4.42414
4.42414
4.42414
4.42414
4.42415
4.42415
4.42415
4.42415
4.42415
4.42415
4.42415
4.42415
4.42415
4.42415
4.42415
4.42415
4.42415
4.42415
4.42415
4.42416
4.42416
4.62563
4.62565
4.62566
4.62568
4.62569
4.6257
4.62571
4.62572
4.62573
4.62574
4.62574
4.62575
4.62575
4.62576
4.62576
4.62576
4.62577
4.62577
4.62577
4.62578
4.62578
4.62578
4.62578
4.62578
4.62578
4.62578
4.62578
4.62579
4.62579
4.62579
4.62579
4.62579
4.62579
4.62579
4.62579
4.62579
4.62579
4.62579
4.62579
4.62579
4.82727
4.82729
4.8273
4.82732
4.82733
4.82734
4.82735
4.82736
4.82737
4.82737
4.82738
4.82738
4.82739
4.82739
4.8274
4.8274
4.8274
4.82741
4.82741
4.82741
4.82741
4.82741
4.82742
4.82742
4.82742
4.82742
4.82742
4.82742
4.82742
4.82742
4.82742
4.82742
4.82742
4.82742
4.82743
4.82743
4.82743
4.82743
4.82743
4.82743
5.0289
5.02892
5.02894
5.02895
5.02897
5.02898
5.02899
5.029
5.029
5.02901
5.02901
5.02902
5.02902
5.02903
5.02903
5.02904
5.02904
5.02904
5.02905
5.02905
5.02905
5.02905
5.02905
5.02905
5.02905
5.02906
5.02906
5.02906
5.02906
5.02906
5.02906
5.02906
5.02906
5.02906
5.02906
5.02906
5.02906
5.02906
5.02906
5.02906
5.23054
5.23056
5.23058
5.23059
5.2306
5.23062
5.23062
5.23063
5.23064
5.23065
5.23065
5.23066
5.23066
5.23067
5.23067
5.23067
5.23068
5.23068
5.23068
5.23068
5.23069
5.23069
5.23069
5.23069
5.23069
5.23069
5.23069
5.23069
5.23069
5.2307
5.2307
5.2307
5.2307
5.2307
5.2307
5.2307
5.2307
5.2307
5.2307
5.2307
5.43218
5.4322
5.43222
5.43223
5.43224
5.43225
5.43226
5.43227
5.43228
5.43228
5.43229
5.43229
5.4323
5.4323
5.43231
5.43231
5.43231
5.43232
5.43232
5.43232
5.43232
5.43232
5.43233
5.43233
5.43233
5.43233
5.43233
5.43233
5.43233
5.43233
5.43233
5.43233
5.43233
5.43233
5.43233
5.43233
5.43233
5.43234
5.43234
5.43234
5.58546
5.58546
5.58546
5.58546
5.58546
5.58546
5.58546
5.58546
5.58546
5.58546
5.58546
5.58546
5.58546
5.58546
5.58546
5.58546
5.58546
5.58546
5.58546
5.58546
5.58546
5.58546
5.58546
5.58546
5.58546
5.58546
5.58546
5.58546
5.58546
5.58546
5.58546
5.58546
5.58546
5.58546
5.58546
5.58546
5.58546
5.58546
5.58546
5.58546
5.68928
5.68928
5.68928
5.68928
5.68928
5.68928
5.68928
5.68928
5.68928
5.68928
5.68928
5.68928
5.68928
5.68928
5.68928
5.68928
5.68928
5.68928
5.68928
5.68928
5.68928
5.68928
5.68928
5.68928
5.68928
5.68928
5.68928
5.68928
5.68928
5.68928
5.68928
5.68928
5.68928
5.68928
5.68928
5.68928
5.68928
5.68928
5.68928
5.68928
5.79013
5.79013
5.79013
5.79013
5.79013
5.79013
5.79013
5.79013
5.79013
5.79013
5.79013
5.79013
5.79013
5.79013
5.79013
5.79013
5.79013
5.79013
5.79013
5.79013
5.79013
5.79013
5.79013
5.79013
5.79013
5.79013
5.79013
5.79013
5.79013
5.79013
5.79013
5.79013
5.79013
5.79013
5.79013
5.79013
5.79013
5.79013
5.79013
5.79013
5.8881
5.8881
5.8881
5.8881
5.8881
5.8881
5.8881
5.8881
5.8881
5.8881
5.8881
5.8881
5.8881
5.8881
5.8881
5.8881
5.8881
5.8881
5.8881
5.8881
5.8881
5.8881
5.8881
5.8881
5.8881
5.8881
5.8881
5.8881
5.8881
5.8881
5.8881
5.8881
5.8881
5.8881
5.8881
5.8881
5.8881
5.8881
5.8881
5.8881
5.98327
5.98327
5.98327
5.98327
5.98327
5.98327
5.98327
5.98327
5.98327
5.98327
5.98327
5.98327
5.98327
5.98327
5.98327
5.98327
5.98327
5.98327
5.98327
5.98327
5.98327
5.98327
5.98327
5.98327
5.98327
5.98327
5.98327
5.98327
5.98327
5.98327
5.98327
5.98327
5.98327
5.98327
5.98327
5.98327
5.98327
5.98327
5.98327
5.98327
6.07573
6.07573
6.07573
6.07573
6.07573
6.07573
6.07573
6.07573
6.07573
6.07573
6.07573
6.07573
6.07573
6.07573
6.07573
6.07573
6.07573
6.07573
6.07573
6.07573
6.07573
6.07573
6.07573
6.07573
6.07573
6.07573
6.07573
6.07573
6.07573
6.07573
6.07573
6.07573
6.07573
6.07573
6.07573
6.07573
6.07573
6.07573
6.07573
6.07573
6.16555
6.16555
6.16555
6.16555
6.16555
6.16555
6.16555
6.16555
6.16555
6.16555
6.16555
6.16555
6.16555
6.16555
6.16555
6.16555
6.16555
6.16555
6.16555
6.16555
6.16555
6.16555
6.16555
6.16555
6.16555
6.16555
6.16555
6.16555
6.16555
6.16555
6.16555
6.16555
6.16555
6.16555
6.16555
6.16555
6.16555
6.16555
6.16555
6.16555
6.25281
6.25281
6.25281
6.25281
6.25281
6.25281
6.25281
6.25281
6.25281
6.25281
6.25281
6.25281
6.25281
6.25281
6.25281
6.25281
6.25281
6.25281
6.25281
6.25281
6.25281
6.25281
6.25281
6.25281
6.25281
6.25281
6.25281
6.25281
6.25281
6.25281
6.25281
6.25281
6.25281
6.25281
6.25281
6.25281
6.25281
6.25281
6.25281
6.25281
6.33757
6.33757
6.33757
6.33757
6.33757
6.33757
6.33757
6.33757
6.33757
6.33757
6.33757
6.33757
6.33757
6.33757
6.33757
6.33757
6.33757
6.33757
6.33757
6.33757
6.33757
6.33757
6.33757
6.33757
6.33757
6.33757
6.33757
6.33757
6.33757
6.33757
6.33757
6.33757
6.33757
6.33757
6.33757
6.33757
6.33757
6.33757
6.33757
6.33757
6.41992
6.41992
6.41992
6.41992
6.41992
6.41992
6.41992
6.41992
6.41992
6.41992
6.41992
6.41992
6.41992
6.41992
6.41992
6.41992
6.41992
6.41992
6.41992
6.41992
6.41992
6.41992
6.41992
6.41992
6.41992
6.41992
6.41992
6.41992
6.41992
6.41992
6.41992
6.41992
6.41992
6.41992
6.41992
6.41992
6.41992
6.41992
6.41992
6.41992
6.49991
6.49991
6.49991
6.49991
6.49991
6.49991
6.49991
6.49991
6.49991
6.49991
6.49991
6.49991
6.49991
6.49991
6.49991
6.49991
6.49991
6.49991
6.49991
6.49991
6.49991
6.49991
6.49991
6.49991
6.49991
6.49991
6.49991
6.49991
6.49991
6.49991
6.49991
6.49991
6.49991
6.49991
6.49991
6.49991
6.49991
6.49991
6.49991
6.49991
6.57762
6.57762
6.57762
6.57762
6.57762
6.57762
6.57762
6.57762
6.57762
6.57762
6.57762
6.57762
6.57762
6.57762
6.57762
6.57762
6.57762
6.57762
6.57762
6.57762
6.57762
6.57762
6.57762
6.57762
6.57762
6.57762
6.57762
6.57762
6.57762
6.57762
6.57762
6.57762
6.57762
6.57762
6.57762
6.57762
6.57762
6.57762
6.57762
6.57762
6.65311
6.65311
6.65311
6.65311
6.65311
6.65311
6.65311
6.65311
6.65311
6.65311
6.65311
6.65311
6.65311
6.65311
6.65311
6.65311
6.65311
6.65311
6.65311
6.65311
6.65311
6.65311
6.65311
6.65311
6.65311
6.65311
6.65311
6.65311
6.65311
6.65311
6.65311
6.65311
6.65311
6.65311
6.65311
6.65311
6.65311
6.65311
6.65311
6.65311
6.72645
6.72645
6.72645
6.72645
6.72645
6.72645
6.72645
6.72645
6.72645
6.72645
6.72645
6.72645
6.72645
6.72645
6.72645
6.72645
6.72645
6.72645
6.72645
6.72645
6.72645
6.72645
6.72645
6.72645
6.72645
6.72645
6.72645
6.72645
6.72645
6.72645
6.72645
6.72645
6.72645
6.72645
6.72645
6.72645
6.72645
6.72645
6.72645
6.72645
6.7977
6.7977
6.7977
6.7977
6.7977
6.7977
6.7977
6.7977
6.7977
6.7977
6.7977
6.7977
6.7977
6.7977
6.7977
6.7977
6.7977
6.7977
6.7977
6.7977
6.7977
6.7977
6.7977
6.7977
6.7977
6.7977
6.7977
6.7977
6.7977
6.7977
6.7977
6.7977
6.7977
6.7977
6.7977
6.7977
6.7977
6.7977
6.7977
6.7977
6.85558
6.85558
6.85558
6.85558
6.85558
6.85558
6.85558
6.85558
6.85558
6.85558
6.85558
6.85558
6.85558
6.85558
6.85558
6.85558
6.85558
6.85558
6.85558
6.85558
6.85558
6.85558
6.85558
6.85558
6.85558
6.85558
6.85558
6.85558
6.85558
6.85558
6.85558
6.85558
6.85558
6.85558
6.85558
6.85558
6.85558
6.85558
6.85558
6.85558
6.90198
6.90198
6.90198
6.90198
6.90198
6.90198
6.90198
6.90198
6.90198
6.90198
6.90198
6.90198
6.90198
6.90198
6.90198
6.90198
6.90198
6.90198
6.90198
6.90198
6.90198
6.90198
6.90198
6.90198
6.90198
6.90198
6.90198
6.90198
6.90198
6.90198
6.90198
6.90198
6.90198
6.90198
6.90198
6.90198
6.90198
6.90198
6.90198
6.90198
6.9501
6.9501
6.9501
6.9501
6.9501
6.9501
6.9501
6.9501
6.9501
6.9501
6.9501
6.9501
6.9501
6.9501
6.9501
6.9501
6.9501
6.9501
6.9501
6.9501
6.9501
6.9501
6.9501
6.9501
6.9501
6.9501
6.9501
6.9501
6.9501
6.9501
6.9501
6.9501
6.9501
6.9501
6.9501
6.9501
6.9501
6.9501
6.9501
6.9501
7.00002
7.00002
7.00002
7.00002
7.00002
7.00002
7.00002
7.00002
7.00002
7.00002
7.00002
7.00002
7.00002
7.00002
7.00002
7.00002
7.00002
7.00002
7.00002
7.00002
7.00002
7.00002
7.00002
7.00002
7.00002
7.00002
7.00002
7.00002
7.00002
7.00002
7.00002
7.00002
7.00002
7.00002
7.00002
7.00002
7.00002
7.00002
7.00002
7.00002
7.05178
7.05178
7.05178
7.05178
7.05178
7.05178
7.05178
7.05178
7.05178
7.05178
7.05178
7.05178
7.05178
7.05178
7.05178
7.05178
7.05178
7.05178
7.05178
7.05178
7.05178
7.05178
7.05178
7.05178
7.05178
7.05178
7.05178
7.05178
7.05178
7.05178
7.05178
7.05178
7.05178
7.05178
7.05178
7.05178
7.05178
7.05178
7.05178
7.05178
7.10547
7.10547
7.10547
7.10547
7.10547
7.10547
7.10547
7.10547
7.10547
7.10547
7.10547
7.10547
7.10547
7.10547
7.10547
7.10547
7.10547
7.10547
7.10547
7.10547
7.10547
7.10547
7.10547
7.10547
7.10547
7.10547
7.10547
7.10547
7.10547
7.10547
7.10547
7.10547
7.10547
7.10547
7.10547
7.10547
7.10547
7.10547
7.10547
7.10547
1.60103
1.80267
2.0043
2.20594
2.40758
2.60922
2.81085
3.01249
3.21413
3.41577
3.61741
3.81904
4.02068
4.22232
4.42396
4.6256
4.82723
5.02887
5.23051
5.43215
1.61122
1.6318
1.65297
1.67474
1.69714
1.72018
1.74388
1.76826
1.79333
1.81912
1.84565
1.87294
1.90101
1.92988
1.95957
1.99011
2.02153
2.05385
2.08708
2.12127
2.15644
2.19261
2.22981
2.26808
2.30744
2.34793
2.38957
2.4324
2.47645
2.52177
2.56837
2.61631
2.66562
2.71634
2.7685
2.82216
2.87735
2.93411
2.99249
3.05254
1.81216
1.83133
1.85106
1.87135
1.89222
1.91368
1.93576
1.95848
1.98184
2.00587
2.03059
2.05601
2.08217
2.10906
2.13673
2.16519
2.19447
2.22458
2.25555
2.2874
2.32017
2.35387
2.38853
2.42419
2.46086
2.49859
2.53739
2.5773
2.61834
2.66057
2.70399
2.74866
2.79461
2.84186
2.89047
2.94046
2.99188
3.04477
3.09917
3.15513
2.0131
2.03087
2.04915
2.06795
2.08729
2.10718
2.12765
2.1487
2.17035
2.19262
2.21553
2.23909
2.26333
2.28825
2.3139
2.34027
2.3674
2.39531
2.42401
2.45353
2.4839
2.51513
2.54726
2.5803
2.61429
2.64925
2.68521
2.72219
2.76024
2.79937
2.83961
2.88101
2.92359
2.96738
3.01243
3.05876
3.10642
3.15544
3.20585
3.25771
2.21404
2.2304
2.24724
2.26455
2.28236
2.30069
2.31953
2.33892
2.35886
2.37937
2.40046
2.42216
2.44449
2.46744
2.49106
2.51535
2.54034
2.56604
2.59247
2.61966
2.64762
2.67639
2.70598
2.73641
2.76771
2.79991
2.83303
2.86709
2.90213
2.93817
2.97523
3.01336
3.05257
3.09291
3.13439
3.17707
3.22096
3.2661
3.31253
3.36029
2.41498
2.42994
2.44533
2.46116
2.47744
2.49419
2.51142
2.52914
2.54737
2.56612
2.5854
2.60524
2.62565
2.64663
2.66822
2.69043
2.71327
2.73677
2.76093
2.78579
2.81135
2.83765
2.8647
2.89252
2.92114
2.95057
2.98085
3.01199
3.04402
3.07696
3.11085
3.14571
3.18156
3.21843
3.25636
3.29537
3.33549
3.37676
3.41921
3.46287
2.61592
2.62947
2.64342
2.65776
2.67251
2.68769
2.7033
2.71936
2.73587
2.75286
2.77034
2.78832
2.80681
2.82582
2.84539
2.86551
2.88621
2.9075
2.92939
2.95192
2.97508
2.99891
3.02342
3.04863
3.07456
3.10124
3.12867
3.15689
3.18591
3.21576
3.24647
3.27805
3.31054
3.34395
3.37832
3.41367
3.45003
3.48742
3.52589
3.56545
2.81686
2.82901
2.84151
2.85436
2.86759
2.88119
2.89518
2.90958
2.92438
2.93961
2.95528
2.97139
2.98797
3.00502
3.02255
3.04059
3.05914
3.07823
3.09785
3.11804
3.13881
3.16017
3.18214
3.20474
3.22799
3.2519
3.27649
3.30179
3.3278
3.35456
3.38209
3.4104
3.43952
3.46948
3.50028
3.53197
3.56456
3.59809
3.63257
3.66803
3.0178
3.02854
3.03959
3.05097
3.06266
3.07469
3.08707
3.0998
3.11289
3.12636
3.14022
3.15447
3.16913
3.18421
3.19972
3.21567
3.23208
3.24896
3.26632
3.28417
3.30254
3.32143
3.34087
3.36085
3.38141
3.40256
3.42431
3.44668
3.4697
3.49336
3.51771
3.54275
3.56851
3.595
3.62225
3.65027
3.6791
3.70875
3.73925
3.77062
3.21874
3.22808
3.23769
3.24757
3.25774
3.2682
3.27895
3.29002
3.3014
3.31311
3.32516
3.33755
3.35029
3.3634
3.37688
3.39075
3.40501
3.41969
3.43478
3.4503
3.46627
3.48269
3.49959
3.51697
3.53484
3.55322
3.57213
3.59158
3.61159
3.63216
3.65333
3.6751
3.69749
3.72052
3.74421
3.76858
3.79364
3.81942
3.84593
3.8732
3.41968
3.42761
3.43578
3.44417
3.45281
3.4617
3.47084
3.48024
3.48991
3.49986
3.51009
3.52062
3.53145
3.54259
3.55404
3.56583
3.57795
3.59042
3.60324
3.61643
3.63
3.64396
3.65831
3.67308
3.68826
3.70388
3.71995
3.73648
3.75348
3.77096
3.78895
3.80745
3.82647
3.84605
3.86617
3.88688
3.90818
3.93008
3.95261
3.97578
3.62062
3.62715
3.63387
3.64078
3.64789
3.6552
3.66272
3.67046
3.67842
3.68661
3.69503
3.7037
3.71261
3.72178
3.73121
3.74091
3.75088
3.76115
3.7717
3.78256
3.79373
3.80522
3.81703
3.82919
3.84169
3.85455
3.86777
3.88138
3.89537
3.90976
3.92457
3.9398
3.95546
3.97157
3.98814
4.00518
4.02271
4.04074
4.05929
4.07836
3.82156
3.82668
3.83196
3.83738
3.84296
3.8487
3.85461
3.86068
3.86693
3.87336
3.87997
3.88677
3.89377
3.90097
3.90837
3.91599
3.92382
3.93188
3.94017
3.94869
3.95746
3.96648
3.97576
3.9853
3.99511
4.00521
4.0156
4.02628
4.03726
4.04857
4.06019
4.07215
4.08444
4.09709
4.1101
4.12349
4.13725
4.15141
4.16597
4.18095
4.0225
4.02622
4.03005
4.03399
4.03804
4.04221
4.04649
4.0509
4.05544
4.06011
4.06491
4.06985
4.07493
4.08016
4.08554
4.09107
4.09676
4.10261
4.10863
4.11482
4.12119
4.12774
4.13448
4.14141
4.14854
4.15587
4.16342
4.17118
4.17916
4.18737
4.19581
4.20449
4.21343
4.22262
4.23207
4.24179
4.25179
4.26207
4.27265
4.28353
4.22344
4.22576
4.22814
4.23059
4.23311
4.23571
4.23838
4.24113
4.24395
4.24686
4.24985
4.25293
4.25609
4.25935
4.2627
4.26615
4.26969
4.27334
4.27709
4.28095
4.28492
4.289
4.2932
4.29752
4.30197
4.30654
4.31124
4.31607
4.32105
4.32617
4.33143
4.33684
4.34241
4.34814
4.35403
4.36009
4.36632
4.37274
4.37933
4.38611
4.42438
4.42529
4.42623
4.42719
4.42819
4.42921
4.43026
4.43135
4.43246
4.43361
4.43479
4.43601
4.43726
4.43854
4.43987
4.44123
4.44263
4.44407
4.44555
4.44708
4.44865
4.45026
4.45192
4.45363
4.45539
4.4572
4.45906
4.46097
4.46294
4.46497
4.46705
4.46919
4.4714
4.47366
4.476
4.47839
4.48086
4.4834
4.48601
4.4887
4.62532
4.62483
4.62432
4.6238
4.62326
4.62271
4.62215
4.62157
4.62097
4.62036
4.61973
4.61908
4.61842
4.61773
4.61703
4.61631
4.61556
4.6148
4.61402
4.61321
4.61238
4.61152
4.61065
4.60974
4.60882
4.60786
4.60688
4.60587
4.60483
4.60377
4.60267
4.60154
4.60038
4.59919
4.59796
4.5967
4.5954
4.59407
4.59269
4.59128
4.82626
4.82437
4.82241
4.8204
4.81834
4.81622
4.81404
4.81179
4.80948
4.80711
4.80467
4.80216
4.79958
4.79693
4.7942
4.79139
4.7885
4.78553
4.78248
4.77934
4.77611
4.77279
4.76937
4.76586
4.76224
4.75853
4.7547
4.75077
4.74673
4.74257
4.73829
4.73389
4.72937
4.72471
4.71993
4.715
4.70994
4.70473
4.69937
4.69386
5.02721
5.0239
5.0205
5.01701
5.01342
5.00972
5.00592
5.00201
4.99799
4.99386
4.98961
4.98524
4.98074
4.97612
4.97136
4.96647
4.96144
4.95626
4.95094
4.94547
4.93984
4.93405
4.92809
4.92197
4.91567
4.90919
4.90253
4.89567
4.88862
4.88137
4.87391
4.86624
4.85835
4.85024
4.84189
4.83331
4.82448
4.81539
4.80605
4.79645
5.22815
5.22344
5.2186
5.21362
5.20849
5.20322
5.19781
5.19224
5.1865
5.18061
5.17455
5.16831
5.1619
5.15531
5.14853
5.14155
5.13437
5.12699
5.1194
5.1116
5.10357
5.09531
5.08682
5.07808
5.06909
5.05985
5.05035
5.04057
5.03051
5.02017
5.00953
4.99859
4.98734
4.97576
4.96386
4.95161
4.93901
4.92606
4.91274
4.89903
5.42909
5.42298
5.41669
5.41022
5.40357
5.39673
5.38969
5.38246
5.37502
5.36736
5.35949
5.35139
5.34307
5.3345
5.32569
5.31663
5.30731
5.29773
5.28787
5.27773
5.2673
5.25657
5.24554
5.23419
5.22252
5.21052
5.19817
5.18547
5.17241
5.15897
5.14515
5.13094
5.11632
5.10129
5.08582
5.06991
5.05355
5.03673
5.01942
5.00162
5.56898
5.56235
5.55554
5.54852
5.54131
5.53389
5.52626
5.51841
5.51034
5.50203
5.49349
5.48471
5.47567
5.46638
5.45682
5.44698
5.43687
5.42647
5.41576
5.40476
5.39344
5.38179
5.36982
5.3575
5.34483
5.33179
5.31839
5.3046
5.29042
5.27583
5.26083
5.24539
5.22952
5.21319
5.1964
5.17913
5.16136
5.14308
5.12429
5.10495
5.64811
5.64184
5.63539
5.62876
5.62193
5.61491
5.6077
5.60027
5.59263
5.58478
5.5767
5.56839
5.55984
5.55105
5.542
5.5327
5.52314
5.51329
5.50317
5.49276
5.48205
5.47104
5.45971
5.44806
5.43607
5.42374
5.41106
5.39802
5.3846
5.3708
5.35661
5.34201
5.327
5.31155
5.29566
5.27932
5.26252
5.24523
5.22745
5.20916
5.72723
5.72132
5.71524
5.70899
5.70255
5.69594
5.68913
5.68213
5.67493
5.66752
5.6599
5.65207
5.64401
5.63572
5.62719
5.61842
5.6094
5.60012
5.59058
5.58076
5.57067
5.56028
5.5496
5.53861
5.52731
5.51569
5.50373
5.49143
5.47878
5.46577
5.45239
5.43863
5.42447
5.40991
5.39493
5.37952
5.36368
5.34738
5.33061
5.31337
5.80636
5.80081
5.79509
5.78922
5.78317
5.77696
5.77056
5.76399
5.75722
5.75027
5.74311
5.73575
5.72818
5.72039
5.71238
5.70414
5.69567
5.68695
5.67799
5.66877
5.65928
5.64952
5.63949
5.62917
5.61855
5.60763
5.5964
5.58485
5.57297
5.56075
5.54817
5.53524
5.52194
5.50826
5.49419
5.47972
5.46484
5.44952
5.43378
5.41758
5.88548
5.88029
5.87495
5.86945
5.8638
5.85798
5.852
5.84585
5.83952
5.83301
5.82632
5.81943
5.81235
5.80506
5.79757
5.78986
5.78194
5.77378
5.76539
5.75677
5.74789
5.73877
5.72938
5.71973
5.70979
5.69958
5.68907
5.67827
5.66715
5.65572
5.64396
5.63186
5.61942
5.60662
5.59346
5.57992
5.56599
5.55167
5.53694
5.52179
5.96461
5.95977
5.9548
5.94968
5.94442
5.939
5.93343
5.92771
5.92181
5.91575
5.90952
5.90311
5.89652
5.88973
5.88276
5.87558
5.8682
5.86061
5.8528
5.84477
5.83651
5.82801
5.81927
5.81028
5.80104
5.79153
5.78174
5.77168
5.76133
5.75069
5.73974
5.72848
5.71689
5.70498
5.69272
5.68012
5.66715
5.65382
5.6401
5.62599
6.04374
6.03926
6.03465
6.02991
6.02504
6.02002
6.01487
6.00957
6.00411
5.9985
5.99273
5.98679
5.98069
5.97441
5.96795
5.9613
5.95447
5.94744
5.94021
5.93277
5.92512
5.91726
5.90916
5.90084
5.89228
5.88347
5.87441
5.8651
5.85552
5.84566
5.83552
5.82509
5.81437
5.80334
5.79199
5.78032
5.76831
5.75597
5.74326
5.7302
6.12286
6.11874
6.1145
6.11014
6.10566
6.10105
6.0963
6.09142
6.08641
6.08124
6.07593
6.07047
6.06486
6.05908
6.05313
6.04702
6.04073
6.03427
6.02762
6.02077
6.01374
6.0065
5.99905
5.9914
5.98352
5.97542
5.96709
5.95851
5.9497
5.94063
5.9313
5.92171
5.91184
5.90169
5.89125
5.88052
5.86947
5.85811
5.84643
5.83441
6.20199
6.19822
6.19435
6.19037
6.18628
6.18207
6.17774
6.17328
6.1687
6.16399
6.15914
6.15415
6.14902
6.14375
6.13832
6.13274
6.127
6.1211
6.11502
6.10878
6.10235
6.09574
6.08895
6.08195
6.07476
6.06737
6.05976
6.05193
6.04388
6.0356
6.02709
6.01833
6.00932
6.00005
5.99052
5.98072
5.97063
5.96026
5.94959
5.93862
6.28111
6.27771
6.27421
6.27061
6.2669
6.26309
6.25917
6.25514
6.251
6.24673
6.24235
6.23783
6.23319
6.22842
6.22351
6.21846
6.21327
6.20793
6.20243
6.19678
6.19097
6.18499
6.17884
6.17251
6.166
6.15931
6.15243
6.14535
6.13806
6.13057
6.12287
6.11494
6.10679
6.09841
6.08978
6.08091
6.07179
6.06241
6.05275
6.04283
6.36024
6.35719
6.35406
6.35084
6.34752
6.34411
6.34061
6.337
6.33329
6.32948
6.32555
6.32151
6.31736
6.31309
6.3087
6.30418
6.29953
6.29476
6.28984
6.28478
6.27958
6.27423
6.26873
6.26307
6.25725
6.25126
6.2451
6.23876
6.23225
6.22554
6.21865
6.21156
6.20427
6.19677
6.18905
6.18111
6.17295
6.16455
6.15592
6.14703
6.43936
6.43667
6.43391
6.43107
6.42814
6.42514
6.42204
6.41886
6.41559
6.41222
6.40876
6.4052
6.40153
6.39776
6.39389
6.3899
6.3858
6.38158
6.37725
6.37278
6.36819
6.36347
6.35862
6.35362
6.34849
6.3432
6.33777
6.33218
6.32643
6.32052
6.31443
6.30818
6.30174
6.29512
6.28831
6.28131
6.27411
6.2667
6.25908
6.25124
6.51849
6.51616
6.51376
6.5113
6.50876
6.50616
6.50348
6.50072
6.49788
6.49496
6.49196
6.48888
6.4857
6.48244
6.47908
6.47562
6.47207
6.46841
6.46465
6.46079
6.45681
6.45272
6.44851
6.44418
6.43973
6.43515
6.43044
6.4256
6.42061
6.41549
6.41022
6.40479
6.39922
6.39348
6.38758
6.38151
6.37527
6.36885
6.36224
6.35545
6.59761
6.59564
6.59361
6.59153
6.58939
6.58718
6.58491
6.58258
6.58018
6.57771
6.57517
6.57256
6.56987
6.56711
6.56427
6.56134
6.55833
6.55524
6.55206
6.54879
6.54542
6.54196
6.5384
6.53474
6.53097
6.5271
6.52311
6.51901
6.5148
6.51046
6.506
6.50141
6.49669
6.49184
6.48684
6.48171
6.47643
6.47099
6.46541
6.45966
6.67674
6.67513
6.67347
6.67176
6.67001
6.6682
6.66635
6.66444
6.66247
6.66045
6.65837
6.65624
6.65404
6.65178
6.64945
6.64706
6.6446
6.64207
6.63947
6.63679
6.63404
6.6312
6.62829
6.6253
6.62221
6.61904
6.61578
6.61243
6.60898
6.60543
6.60178
6.59803
6.59417
6.59019
6.58611
6.58191
6.57759
6.57314
6.56857
6.56387
6.75586
6.75461
6.75332
6.75199
6.75063
6.74922
6.74778
6.7463
6.74477
6.7432
6.74158
6.73992
6.73821
6.73645
6.73464
6.73278
6.73087
6.7289
6.72688
6.72479
6.72265
6.72045
6.71818
6.71585
6.71345
6.71099
6.70845
6.70584
6.70316
6.7004
6.69756
6.69464
6.69164
6.68855
6.68537
6.68211
6.67874
6.67529
6.67173
6.66807
6.83499
6.83409
6.83317
6.83222
6.83125
6.83025
6.82921
6.82815
6.82706
6.82594
6.82479
6.8236
6.82238
6.82112
6.81983
6.8185
6.81713
6.81573
6.81428
6.8128
6.81127
6.80969
6.80807
6.80641
6.8047
6.80294
6.80112
6.79926
6.79734
6.79537
6.79335
6.79126
6.78911
6.78691
6.78464
6.7823
6.7799
6.77743
6.77489
6.77228
6.91411
6.91358
6.91302
6.91245
6.91187
6.91127
6.91065
6.91001
6.90936
6.90869
6.90799
6.90728
6.90655
6.90579
6.90502
6.90422
6.9034
6.90256
6.90169
6.9008
6.89988