/*--------------------------------*- C++ -*----------------------------------*\
| =========                 |                                                 |
| \\      /  F ield         | OpenFOAM: The Open Source CFD Toolbox           |
|  \\    /   O peration     | Version:  2312                                  |
|   \\  /    A nd           | Website:  www.openfoam.com                      |
|    \\/     M anipulation  |                                                 |
\*---------------------------------------------------------------------------*/
FoamFile
{
    version     2.0;
    format      ascii;
    arch        "LSB;label=32;scalar=64";
    class       volScalarField;
    location    "constant";
    object      Cy;
}
// * * * * * * * * * * * * * * * * * * * * * * * * * * * * * * * * * * * * * //

dimensions      [0 1 0 0 0 0 0];

internalField   nonuniform List<scalar> 
3780
(
0.0321683
0.0321854
0.0322015
0.0322165
0.0322307
0.0322439
0.0322564
0.032268
0.032279
0.0322893
0.032299
0.0323081
0.0323167
0.0323248
0.0323323
0.0323395
0.0323462
0.0323525
0.0323584
0.032364
0.0323685
0.032372
0.0323751
0.032378
0.0323806
0.032383
0.0323851
0.0323872
0.032389
0.0323908
0.0323924
0.0323939
0.0323953
0.0323966
0.0323978
0.032399
0.0324001
0.0324011
0.0324021
0.032403
0.0979874
0.0980067
0.0980247
0.0980415
0.0980571
0.0980717
0.0980853
0.0980981
0.09811
0.0981211
0.0981316
0.0981414
0.0981505
0.0981591
0.0981672
0.0981747
0.0981818
0.0981885
0.0981947
0.0982006
0.0982053
0.0982089
0.0982122
0.0982152
0.0982179
0.0982204
0.0982227
0.0982248
0.0982267
0.0982285
0.0982302
0.0982318
0.0982332
0.0982346
0.0982359
0.0982371
0.0982382
0.0982392
0.0982402
0.0982412
0.168088
0.168109
0.16813
0.168148
0.168165
0.168181
0.168196
0.16821
0.168223
0.168235
0.168246
0.168257
0.168267
0.168276
0.168284
0.168292
0.1683
0.168307
0.168313
0.16832
0.168324
0.168328
0.168332
0.168335
0.168338
0.16834
0.168343
0.168345
0.168347
0.168349
0.16835
0.168352
0.168353
0.168355
0.168356
0.168357
0.168359
0.16836
0.168361
0.168362
0.242747
0.242772
0.242794
0.242815
0.242834
0.242852
0.242868
0.242883
0.242897
0.24291
0.242922
0.242933
0.242944
0.242953
0.242962
0.242971
0.242979
0.242986
0.242993
0.242999
0.243005
0.243008
0.243012
0.243015
0.243018
0.243021
0.243023
0.243026
0.243028
0.24303
0.243031
0.243033
0.243035
0.243036
0.243037
0.243039
0.24304
0.243041
0.243042
0.243043
0.322263
0.322291
0.322316
0.322339
0.32236
0.322379
0.322397
0.322413
0.322428
0.322442
0.322455
0.322467
0.322478
0.322488
0.322498
0.322507
0.322515
0.322523
0.32253
0.322537
0.322542
0.322546
0.32255
0.322553
0.322556
0.322559
0.322562
0.322564
0.322566
0.322568
0.32257
0.322572
0.322573
0.322575
0.322576
0.322578
0.322579
0.32258
0.322581
0.322582
0.406951
0.406982
0.40701
0.407035
0.407058
0.40708
0.407099
0.407117
0.407133
0.407148
0.407161
0.407174
0.407186
0.407197
0.407207
0.407216
0.407225
0.407233
0.407241
0.407248
0.407253
0.407257
0.407261
0.407265
0.407268
0.407271
0.407273
0.407276
0.407278
0.40728
0.407282
0.407284
0.407286
0.407287
0.407289
0.40729
0.407291
0.407292
0.407294
0.407295
0.497147
0.497182
0.497213
0.497241
0.497267
0.49729
0.497311
0.49733
0.497347
0.497363
0.497378
0.497391
0.497404
0.497415
0.497426
0.497436
0.497445
0.497453
0.497461
0.497468
0.497474
0.497479
0.497483
0.497486
0.49749
0.497492
0.497495
0.497498
0.4975
0.497502
0.497504
0.497506
0.497508
0.497509
0.497511
0.497512
0.497513
0.497515
0.497516
0.497517
0.59321
0.593249
0.593284
0.593315
0.593343
0.593368
0.59339
0.593411
0.59343
0.593447
0.593462
0.593477
0.59349
0.593502
0.593513
0.593523
0.593533
0.593542
0.59355
0.593558
0.593564
0.593568
0.593572
0.593576
0.593579
0.593582
0.593585
0.593588
0.59359
0.593592
0.593594
0.593596
0.593598
0.5936
0.593601
0.593603
0.593604
0.593605
0.593607
0.593608
0.695521
0.695565
0.695603
0.695638
0.695668
0.695695
0.69572
0.695742
0.695762
0.69578
0.695797
0.695812
0.695826
0.695839
0.695851
0.695861
0.695871
0.69588
0.695889
0.695897
0.695903
0.695908
0.695912
0.695916
0.695919
0.695922
0.695925
0.695928
0.69593
0.695933
0.695935
0.695937
0.695939
0.69594
0.695942
0.695943
0.695945
0.695946
0.695947
0.695948
0.804486
0.804536
0.804578
0.804616
0.80465
0.804679
0.804706
0.80473
0.804751
0.804771
0.804788
0.804804
0.804819
0.804832
0.804844
0.804856
0.804866
0.804876
0.804884
0.804892
0.804899
0.804904
0.804908
0.804912
0.804916
0.804919
0.804922
0.804925
0.804927
0.80493
0.804932
0.804934
0.804935
0.804937
0.804939
0.80494
0.804942
0.804943
0.804944
0.804946
0.920539
0.920595
0.920642
0.920684
0.92072
0.920752
0.920781
0.920806
0.920829
0.92085
0.920869
0.920886
0.920901
0.920915
0.920928
0.920939
0.92095
0.92096
0.920969
0.920978
0.920984
0.920989
0.920994
0.920998
0.921002
0.921005
0.921008
0.921011
0.921013
0.921016
0.921018
0.92102
0.921022
0.921024
0.921025
0.921027
0.921028
0.92103
0.921031
0.921032
1.04414
1.0442
1.04426
1.0443
1.04434
1.04438
1.04441
1.04443
1.04446
1.04448
1.0445
1.04452
1.04453
1.04455
1.04456
1.04457
1.04458
1.0446
1.0446
1.04461
1.04462
1.04463
1.04463
1.04463
1.04464
1.04464
1.04464
1.04465
1.04465
1.04465
1.04465
1.04466
1.04466
1.04466
1.04466
1.04466
1.04467
1.04467
1.04467
1.04467
1.20385
1.20384
1.20384
1.20383
1.20383
1.20383
1.20382
1.20382
1.20382
1.20382
1.20381
1.20381
1.20381
1.20381
1.20381
1.20381
1.20381
1.20381
1.2038
1.2038
1.2038
1.2038
1.2038
1.2038
1.2038
1.2038
1.2038
1.2038
1.2038
1.2038
1.2038
1.2038
1.2038
1.2038
1.2038
1.2038
1.2038
1.2038
1.2038
1.2038
1.39726
1.39726
1.39725
1.39725
1.39724
1.39724
1.39724
1.39724
1.39723
1.39723
1.39723
1.39723
1.39723
1.39723
1.39722
1.39722
1.39722
1.39722
1.39722
1.39722
1.39722
1.39722
1.39722
1.39722
1.39722
1.39722
1.39722
1.39722
1.39722
1.39722
1.39722
1.39722
1.39722
1.39722
1.39722
1.39722
1.39721
1.39721
1.39721
1.39721
1.59068
1.59067
1.59067
1.59066
1.59066
1.59066
1.59066
1.59065
1.59065
1.59065
1.59065
1.59064
1.59064
1.59064
1.59064
1.59064
1.59064
1.59064
1.59064
1.59064
1.59064
1.59063
1.59063
1.59063
1.59063
1.59063
1.59063
1.59063
1.59063
1.59063
1.59063
1.59063
1.59063
1.59063
1.59063
1.59063
1.59063
1.59063
1.59063
1.59063
1.7841
1.78409
1.78409
1.78408
1.78408
1.78407
1.78407
1.78407
1.78407
1.78406
1.78406
1.78406
1.78406
1.78406
1.78406
1.78406
1.78405
1.78405
1.78405
1.78405
1.78405
1.78405
1.78405
1.78405
1.78405
1.78405
1.78405
1.78405
1.78405
1.78405
1.78405
1.78405
1.78405
1.78405
1.78405
1.78405
1.78405
1.78405
1.78405
1.78405
1.97751
1.97751
1.9775
1.9775
1.97749
1.97749
1.97749
1.97749
1.97748
1.97748
1.97748
1.97748
1.97748
1.97747
1.97747
1.97747
1.97747
1.97747
1.97747
1.97747
1.97747
1.97747
1.97747
1.97747
1.97747
1.97747
1.97747
1.97747
1.97747
1.97746
1.97746
1.97746
1.97746
1.97746
1.97746
1.97746
1.97746
1.97746
1.97746
1.97746
2.17093
2.17092
2.17092
2.17091
2.17091
2.17091
2.1709
2.1709
2.1709
2.1709
2.1709
2.17089
2.17089
2.17089
2.17089
2.17089
2.17089
2.17089
2.17089
2.17088
2.17088
2.17088
2.17088
2.17088
2.17088
2.17088
2.17088
2.17088
2.17088
2.17088
2.17088
2.17088
2.17088
2.17088
2.17088
2.17088
2.17088
2.17088
2.17088
2.17088
2.36435
2.36434
2.36433
2.36433
2.36433
2.36432
2.36432
2.36432
2.36432
2.36431
2.36431
2.36431
2.36431
2.36431
2.36431
2.3643
2.3643
2.3643
2.3643
2.3643
2.3643
2.3643
2.3643
2.3643
2.3643
2.3643
2.3643
2.3643
2.3643
2.3643
2.3643
2.3643
2.3643
2.3643
2.3643
2.3643
2.3643
2.3643
2.3643
2.3643
2.55776
2.55776
2.55775
2.55775
2.55774
2.55774
2.55774
2.55773
2.55773
2.55773
2.55773
2.55773
2.55772
2.55772
2.55772
2.55772
2.55772
2.55772
2.55772
2.55772
2.55772
2.55772
2.55772
2.55772
2.55771
2.55771
2.55771
2.55771
2.55771
2.55771
2.55771
2.55771
2.55771
2.55771
2.55771
2.55771
2.55771
2.55771
2.55771
2.55771
2.75118
2.75117
2.75117
2.75116
2.75116
2.75116
2.75115
2.75115
2.75115
2.75115
2.75114
2.75114
2.75114
2.75114
2.75114
2.75114
2.75114
2.75114
2.75113
2.75113
2.75113
2.75113
2.75113
2.75113
2.75113
2.75113
2.75113
2.75113
2.75113
2.75113
2.75113
2.75113
2.75113
2.75113
2.75113
2.75113
2.75113
2.75113
2.75113
2.75113
2.94459
2.94459
2.94458
2.94458
2.94458
2.94457
2.94457
2.94457
2.94456
2.94456
2.94456
2.94456
2.94456
2.94456
2.94455
2.94455
2.94455
2.94455
2.94455
2.94455
2.94455
2.94455
2.94455
2.94455
2.94455
2.94455
2.94455
2.94455
2.94455
2.94455
2.94455
2.94455
2.94455
2.94455
2.94455
2.94454
2.94454
2.94454
2.94454
2.94454
3.13801
3.13801
3.138
3.138
3.13799
3.13799
3.13799
3.13798
3.13798
3.13798
3.13798
3.13798
3.13797
3.13797
3.13797
3.13797
3.13797
3.13797
3.13797
3.13797
3.13797
3.13796
3.13796
3.13796
3.13796
3.13796
3.13796
3.13796
3.13796
3.13796
3.13796
3.13796
3.13796
3.13796
3.13796
3.13796
3.13796
3.13796
3.13796
3.13796
3.33143
3.33142
3.33142
3.33141
3.33141
3.33141
3.3314
3.3314
3.3314
3.3314
3.33139
3.33139
3.33139
3.33139
3.33139
3.33139
3.33139
3.33138
3.33138
3.33138
3.33138
3.33138
3.33138
3.33138
3.33138
3.33138
3.33138
3.33138
3.33138
3.33138
3.33138
3.33138
3.33138
3.33138
3.33138
3.33138
3.33138
3.33138
3.33138
3.33138
3.52484
3.52484
3.52483
3.52483
3.52482
3.52482
3.52482
3.52482
3.52481
3.52481
3.52481
3.52481
3.52481
3.5248
3.5248
3.5248
3.5248
3.5248
3.5248
3.5248
3.5248
3.5248
3.5248
3.5248
3.5248
3.5248
3.5248
3.5248
3.52479
3.52479
3.52479
3.52479
3.52479
3.52479
3.52479
3.52479
3.52479
3.52479
3.52479
3.52479
3.71826
3.71825
3.71825
3.71825
3.71824
3.71824
3.71823
3.71823
3.71823
3.71823
3.71823
3.71822
3.71822
3.71822
3.71822
3.71822
3.71822
3.71822
3.71822
3.71821
3.71821
3.71821
3.71821
3.71821
3.71821
3.71821
3.71821
3.71821
3.71821
3.71821
3.71821
3.71821
3.71821
3.71821
3.71821
3.71821
3.71821
3.71821
3.71821
3.71821
3.91168
3.91167
3.91167
3.91166
3.91166
3.91165
3.91165
3.91165
3.91165
3.91164
3.91164
3.91164
3.91164
3.91164
3.91164
3.91163
3.91163
3.91163
3.91163
3.91163
3.91163
3.91163
3.91163
3.91163
3.91163
3.91163
3.91163
3.91163
3.91163
3.91163
3.91163
3.91163
3.91163
3.91163
3.91163
3.91163
3.91163
3.91163
3.91163
3.91163
4.10509
4.10509
4.10508
4.10508
4.10507
4.10507
4.10507
4.10506
4.10506
4.10506
4.10506
4.10506
4.10506
4.10505
4.10505
4.10505
4.10505
4.10505
4.10505
4.10505
4.10505
4.10505
4.10505
4.10505
4.10504
4.10504
4.10504
4.10504
4.10504
4.10504
4.10504
4.10504
4.10504
4.10504
4.10504
4.10504
4.10504
4.10504
4.10504
4.10504
4.29851
4.2985
4.2985
4.29849
4.29849
4.29849
4.29848
4.29848
4.29848
4.29848
4.29847
4.29847
4.29847
4.29847
4.29847
4.29847
4.29847
4.29847
4.29846
4.29846
4.29846
4.29846
4.29846
4.29846
4.29846
4.29846
4.29846
4.29846
4.29846
4.29846
4.29846
4.29846
4.29846
4.29846
4.29846
4.29846
4.29846
4.29846
4.29846
4.29846
4.49193
4.49192
4.49191
4.49191
4.49191
4.4919
4.4919
4.4919
4.4919
4.49189
4.49189
4.49189
4.49189
4.49189
4.49188
4.49188
4.49188
4.49188
4.49188
4.49188
4.49188
4.49188
4.49188
4.49188
4.49188
4.49188
4.49188
4.49188
4.49188
4.49188
4.49188
4.49188
4.49188
4.49187
4.49187
4.49187
4.49187
4.49187
4.49187
4.49187
4.68534
4.68534
4.68533
4.68533
4.68532
4.68532
4.68532
4.68531
4.68531
4.68531
4.68531
4.68531
4.6853
4.6853
4.6853
4.6853
4.6853
4.6853
4.6853
4.6853
4.6853
4.68529
4.68529
4.68529
4.68529
4.68529
4.68529
4.68529
4.68529
4.68529
4.68529
4.68529
4.68529
4.68529
4.68529
4.68529
4.68529
4.68529
4.68529
4.68529
4.87876
4.87875
4.87875
4.87874
4.87874
4.87874
4.87873
4.87873
4.87873
4.87873
4.87872
4.87872
4.87872
4.87872
4.87872
4.87872
4.87872
4.87871
4.87871
4.87871
4.87871
4.87871
4.87871
4.87871
4.87871
4.87871
4.87871
4.87871
4.87871
4.87871
4.87871
4.87871
4.87871
4.87871
4.87871
4.87871
4.87871
4.87871
4.87871
4.87871
5.06286
5.06286
5.06286
5.06286
5.06286
5.06286
5.06286
5.06286
5.06286
5.06286
5.06286
5.06286
5.06286
5.06286
5.06286
5.06286
5.06286
5.06286
5.06286
5.06286
5.06286
5.06286
5.06286
5.06286
5.06286
5.06286
5.06286
5.06286
5.06286
5.06286
5.06286
5.06286
5.06286
5.06286
5.06286
5.06286
5.06286
5.06286
5.06286
5.06286
5.23503
5.23503
5.23503
5.23503
5.23503
5.23503
5.23503
5.23503
5.23503
5.23503
5.23503
5.23503
5.23503
5.23503
5.23503
5.23503
5.23503
5.23503
5.23503
5.23503
5.23503
5.23503
5.23503
5.23503
5.23503
5.23503
5.23503
5.23503
5.23503
5.23503
5.23503
5.23503
5.23503
5.23503
5.23503
5.23503
5.23503
5.23503
5.23503
5.23503
5.40228
5.40228
5.40228
5.40228
5.40228
5.40228
5.40228
5.40228
5.40228
5.40228
5.40228
5.40228
5.40228
5.40228
5.40228
5.40228
5.40228
5.40228
5.40228
5.40228
5.40228
5.40228
5.40228
5.40228
5.40228
5.40228
5.40228
5.40228
5.40228
5.40228
5.40228
5.40228
5.40228
5.40228
5.40228
5.40228
5.40228
5.40228
5.40228
5.40228
5.56475
5.56475
5.56475
5.56475
5.56475
5.56475
5.56475
5.56475
5.56475
5.56475
5.56475
5.56475
5.56475
5.56475
5.56475
5.56475
5.56475
5.56475
5.56475
5.56475
5.56475
5.56475
5.56475
5.56475
5.56475
5.56475
5.56475
5.56475
5.56475
5.56475
5.56475
5.56475
5.56475
5.56475
5.56475
5.56475
5.56475
5.56475
5.56475
5.56475
5.72259
5.72259
5.72259
5.72259
5.72259
5.72259
5.72259
5.72259
5.72259
5.72259
5.72259
5.72259
5.72259
5.72259
5.72259
5.72259
5.72259
5.72259
5.72259
5.72259
5.72259
5.72259
5.72259
5.72259
5.72259
5.72259
5.72259
5.72259
5.72259
5.72259
5.72259
5.72259
5.72259
5.72259
5.72259
5.72259
5.72259
5.72259
5.72259
5.72259
5.87592
5.87592
5.87592
5.87592
5.87592
5.87592
5.87592
5.87592
5.87592
5.87592
5.87592
5.87592
5.87592
5.87592
5.87592
5.87592
5.87592
5.87592
5.87592
5.87592
5.87592
5.87592
5.87592
5.87592
5.87592
5.87592
5.87592
5.87592
5.87592
5.87592
5.87592
5.87592
5.87592
5.87592
5.87592
5.87592
5.87592
5.87592
5.87592
5.87592
6.02488
6.02488
6.02488
6.02488
6.02488
6.02488
6.02488
6.02488
6.02488
6.02488
6.02488
6.02488
6.02488
6.02488
6.02488
6.02488
6.02488
6.02488
6.02488
6.02488
6.02488
6.02488
6.02488
6.02488
6.02488
6.02488
6.02488
6.02488
6.02488
6.02488
6.02488
6.02488
6.02488
6.02488
6.02488
6.02488
6.02488
6.02488
6.02488
6.02488
6.16958
6.16958
6.16958
6.16958
6.16958
6.16958
6.16958
6.16958
6.16958
6.16958
6.16958
6.16958
6.16958
6.16958
6.16958
6.16958
6.16958
6.16958
6.16958
6.16958
6.16958
6.16958
6.16958
6.16958
6.16958
6.16958
6.16958
6.16958
6.16958
6.16958
6.16958
6.16958
6.16958
6.16958
6.16958
6.16958
6.16958
6.16958
6.16958
6.16958
6.31015
6.31015
6.31015
6.31015
6.31015
6.31015
6.31015
6.31015
6.31015
6.31015
6.31015
6.31015
6.31015
6.31015
6.31015
6.31015
6.31015
6.31015
6.31015
6.31015
6.31015
6.31015
6.31015
6.31015
6.31015
6.31015
6.31015
6.31015
6.31015
6.31015
6.31015
6.31015
6.31015
6.31015
6.31015
6.31015
6.31015
6.31015
6.31015
6.31015
6.44671
6.44671
6.44671
6.44671
6.44671
6.44671
6.44671
6.44671
6.44671
6.44671
6.44671
6.44671
6.44671
6.44671
6.44671
6.44671
6.44671
6.44671
6.44671
6.44671
6.44671
6.44671
6.44671
6.44671
6.44671
6.44671
6.44671
6.44671
6.44671
6.44671
6.44671
6.44671
6.44671
6.44671
6.44671
6.44671
6.44671
6.44671
6.44671
6.44671
6.57937
6.57937
6.57937
6.57937
6.57937
6.57937
6.57937
6.57937
6.57937
6.57937
6.57937
6.57937
6.57937
6.57937
6.57937
6.57937
6.57937
6.57937
6.57937
6.57937
6.57937
6.57937
6.57937
6.57937
6.57937
6.57937
6.57937
6.57937
6.57937
6.57937
6.57937
6.57937
6.57937
6.57937
6.57937
6.57937
6.57937
6.57937
6.57937
6.57937
6.70825
6.70825
6.70825
6.70825
6.70825
6.70825
6.70825
6.70825
6.70825
6.70825
6.70825
6.70825
6.70825
6.70825
6.70825
6.70825
6.70825
6.70825
6.70825
6.70825
6.70825
6.70825
6.70825
6.70825
6.70825
6.70825
6.70825
6.70825
6.70825
6.70825
6.70825
6.70825
6.70825
6.70825
6.70825
6.70825
6.70825
6.70825
6.70825
6.70825
6.83344
6.83344
6.83344
6.83344
6.83344
6.83344
6.83344
6.83344
6.83344
6.83344
6.83344
6.83344
6.83344
6.83344
6.83344
6.83344
6.83344
6.83344
6.83344
6.83344
6.83344
6.83344
6.83344
6.83344
6.83344
6.83344
6.83344
6.83344
6.83344
6.83344
6.83344
6.83344
6.83344
6.83344
6.83344
6.83344
6.83344
6.83344
6.83344
6.83344
6.95506
6.95506
6.95506
6.95506
6.95506
6.95506
6.95506
6.95506
6.95506
6.95506
6.95506
6.95506
6.95506
6.95506
6.95506
6.95506
6.95506
6.95506
6.95506
6.95506
6.95506
6.95506
6.95506
6.95506
6.95506
6.95506
6.95506
6.95506
6.95506
6.95506
6.95506
6.95506
6.95506
6.95506
6.95506
6.95506
6.95506
6.95506
6.95506
6.95506
7.07321
7.07321
7.07321
7.07321
7.07321
7.07321
7.07321
7.07321
7.07321
7.07321
7.07321
7.07321
7.07321
7.07321
7.07321
7.07321
7.07321
7.07321
7.07321
7.07321
7.07321
7.07321
7.07321
7.07321
7.07321
7.07321
7.07321
7.07321
7.07321
7.07321
7.07321
7.07321
7.07321
7.07321
7.07321
7.07321
7.07321
7.07321
7.07321
7.07321
7.15421
7.15421
7.15421
7.15421
7.15421
7.15421
7.15421
7.15421
7.15421
7.15421
7.15421
7.15421
7.15421
7.15421
7.15421
7.15421
7.15421
7.15421
7.15421
7.15421
7.15421
7.15421
7.15421
7.15421
7.15421
7.15421
7.15421
7.15421
7.15421
7.15421
7.15421
7.15421
7.15421
7.15421
7.15421
7.15421
7.15421
7.15421
7.15421
7.15421
7.20061
7.20061
7.20061
7.20061
7.20061
7.20061
7.20061
7.20061
7.20061
7.20061
7.20061
7.20061
7.20061
7.20061
7.20061
7.20061
7.20061
7.20061
7.20061
7.20061
7.20061
7.20061
7.20061
7.20061
7.20061
7.20061
7.20061
7.20061
7.20061
7.20061
7.20061
7.20061
7.20061
7.20061
7.20061
7.20061
7.20061
7.20061
7.20061
7.20061
7.24874
7.24874
7.24874
7.24874
7.24874
7.24874
7.24874
7.24874
7.24874
7.24874
7.24874
7.24874
7.24874
7.24874
7.24874
7.24874
7.24874
7.24874
7.24874
7.24874
7.24874
7.24874
7.24874
7.24874
7.24874
7.24874
7.24874
7.24874
7.24874
7.24874
7.24874
7.24874
7.24874
7.24874
7.24874
7.24874
7.24874
7.24874
7.24874
7.24874
7.29865
7.29865
7.29865
7.29865
7.29865
7.29865
7.29865
7.29865
7.29865
7.29865
7.29865
7.29865
7.29865
7.29865
7.29865
7.29865
7.29865
7.29865
7.29865
7.29865
7.29865
7.29865
7.29865
7.29865
7.29865
7.29865
7.29865
7.29865
7.29865
7.29865
7.29865
7.29865
7.29865
7.29865
7.29865
7.29865
7.29865
7.29865
7.29865
7.29865
7.35041
7.35041
7.35041
7.35041
7.35041
7.35041
7.35041
7.35041
7.35041
7.35041
7.35041
7.35041
7.35041
7.35041
7.35041
7.35041
7.35041
7.35041
7.35041
7.35041
7.35041
7.35041
7.35041
7.35041
7.35041
7.35041
7.35041
7.35041
7.35041
7.35041
7.35041
7.35041
7.35041
7.35041
7.35041
7.35041
7.35041
7.35041
7.35041
7.35041
7.4041
7.4041
7.4041
7.4041
7.4041
7.4041
7.4041
7.4041
7.4041
7.4041
7.4041
7.4041
7.4041
7.4041
7.4041
7.4041
7.4041
7.4041
7.4041
7.4041
7.4041
7.4041
7.4041
7.4041
7.4041
7.4041
7.4041
7.4041
7.4041
7.4041
7.4041
7.4041
7.4041
7.4041
7.4041
7.4041
7.4041
7.4041
7.4041
7.4041
1.20386
1.39727
1.59069
1.78411
1.97752
2.17094
2.36436
2.55777
2.75119
2.9446
3.13802
3.33144
3.52485
3.71827
3.91169
4.1051
4.29852
4.49194
4.68535
4.87877
1.21646
1.24178
1.26783
1.29462
1.32218
1.35053
1.37968
1.40967
1.44051
1.47224
1.50487
1.53843
1.57295
1.60846
1.64498
1.68255
1.72119
1.76093
1.80181
1.84386
1.8871
1.93158
1.97734
2.0244
2.0728
2.12259
2.1738
2.22647
2.28064
2.33637
2.39368
2.45263
2.51327
2.57564
2.63979
2.70577
2.77363
2.84343
2.91523
2.98908
1.40929
1.43345
1.4583
1.48386
1.51015
1.53719
1.56501
1.59361
1.62304
1.6533
1.68443
1.71645
1.74939
1.78326
1.8181
1.85394
1.8908
1.92871
1.96771
2.00782
2.04908
2.09151
2.13516
2.18005
2.22623
2.27373
2.32258
2.37283
2.42451
2.47767
2.53234
2.58858
2.64643
2.70593
2.76712
2.83007
2.89481
2.9614
3.02989
3.10034
1.60213
1.62513
1.64878
1.6731
1.69813
1.72386
1.75033
1.77756
1.80557
1.83437
1.864
1.89447
1.92582
1.95806
1.99122
2.02533
2.06041
2.0965
2.13361
2.17179
2.21105
2.25144
2.29298
2.33571
2.37966
2.42487
2.47136
2.51918
2.56837
2.61897
2.67101
2.72453
2.77959
2.83622
2.89446
2.95437
3.01599
3.07937
3.14455
3.2116
1.79497
1.8168
1.83925
1.86235
1.8861
1.91053
1.93566
1.96151
1.98809
2.01544
2.04357
2.0725
2.10225
2.13286
2.16434
2.19672
2.23002
2.26428
2.29951
2.33575
2.37303
2.41137
2.45081
2.49137
2.53309
2.576
2.62014
2.66554
2.71224
2.76027
2.80967
2.86048
2.91275
2.96651
3.0218
3.07867
3.13716
3.19733
3.25921
3.32287
1.98781
2.00847
2.02972
2.05159
2.07407
2.0972
2.12099
2.14545
2.17062
2.19651
2.22313
2.25052
2.27868
2.30766
2.33746
2.36811
2.39963
2.43206
2.46541
2.49972
2.53501
2.5713
2.60863
2.64703
2.68652
2.72714
2.76893
2.8119
2.8561
2.90157
2.94833
2.99643
3.04591
3.0968
3.14914
3.20297
3.25834
3.3153
3.37388
3.43413
2.18064
2.20014
2.2202
2.24083
2.26204
2.28387
2.30631
2.3294
2.35315
2.37757
2.4027
2.42854
2.45512
2.48245
2.51057
2.5395
2.56924
2.59984
2.63131
2.66369
2.69698
2.73123
2.76645
2.80268
2.83995
2.87828
2.91771
2.95826
2.99997
3.04287
3.087
3.13238
3.17907
3.22708
3.27647
3.32727
3.37952
3.43326
3.48854
3.54539
2.37348
2.39181
2.41067
2.43007
2.45002
2.47054
2.49164
2.51335
2.53568
2.55864
2.58226
2.60656
2.63155
2.65725
2.68369
2.71088
2.73886
2.76762
2.79722
2.82765
2.85896
2.89116
2.92428
2.95834
2.99338
3.02942
3.06649
3.10462
3.14383
3.18417
3.22566
3.26833
3.31223
3.35737
3.40381
3.45157
3.5007
3.55123
3.6032
3.65665
2.56632
2.58349
2.60114
2.61931
2.63799
2.6572
2.67697
2.69729
2.7182
2.73971
2.76183
2.78458
2.80798
2.83205
2.85681
2.88227
2.90847
2.93541
2.96312
2.99162
3.02093
3.05109
3.0821
3.114
3.14681
3.18056
3.21527
3.25098
3.2877
3.32547
3.36432
3.40428
3.44539
3.48766
3.53115
3.57587
3.62188
3.66919
3.71786
3.76792
2.75916
2.77516
2.79162
2.80855
2.82596
2.84387
2.86229
2.88124
2.90073
2.92078
2.94139
2.9626
2.98441
3.00685
3.02993
3.05366
3.07808
3.10319
3.12902
3.15558
3.18291
3.21101
3.23992
3.26966
3.30024
3.3317
3.36405
3.39733
3.43156
3.46677
3.50299
3.54023
3.57855
3.61795
3.65849
3.70017
3.74305
3.78716
3.83252
3.87918
2.95199
2.96683
2.98209
2.99779
3.01393
3.03054
3.04762
3.06519
3.08326
3.10184
3.12096
3.14062
3.16085
3.18165
3.20304
3.22505
3.24769
3.27097
3.29492
3.31955
3.34488
3.37094
3.39775
3.42531
3.45367
3.48284
3.51284
3.54369
3.57543
3.60807
3.64165
3.67619
3.71171
3.74824
3.78582
3.82448
3.86423
3.90512
3.94718
3.99044
3.14483
3.1585
3.17256
3.18703
3.20191
3.21721
3.23295
3.24913
3.26578
3.28291
3.30053
3.31864
3.33728
3.35645
3.37616
3.39644
3.4173
3.43875
3.46082
3.48351
3.50686
3.53087
3.55557
3.58097
3.6071
3.63398
3.66162
3.69005
3.71929
3.74937
3.78031
3.81214
3.84487
3.87853
3.91316
3.94878
3.98541
4.02309
4.06184
4.10171
3.33767
3.35017
3.36304
3.37627
3.38988
3.40387
3.41827
3.43308
3.44831
3.46398
3.48009
3.49666
3.51371
3.53125
3.54928
3.56783
3.58691
3.60653
3.62672
3.64748
3.66884
3.6908
3.71339
3.73663
3.76053
3.78511
3.8104
3.83641
3.86316
3.89067
3.91898
3.94809
3.97803
4.00882
4.0405
4.07308
4.10659
4.14105
4.17651
4.21297
3.5305
3.54185
3.55351
3.56551
3.57785
3.59054
3.6036
3.61703
3.63084
3.64504
3.65966
3.67469
3.69014
3.70604
3.7224
3.73922
3.75652
3.77432
3.79262
3.81145
3.83081
3.85073
3.87122
3.89229
3.91396
3.93625
3.95918
3.98277
4.00702
4.03198
4.05764
4.08404
4.11119
4.13911
4.16783
4.19738
4.22776
4.25902
4.29117
4.32423
3.72334
3.73352
3.74398
3.75475
3.76582
3.77721
3.78892
3.80097
3.81337
3.82611
3.83922
3.85271
3.86658
3.88084
3.89552
3.91061
3.92613
3.9421
3.95852
3.97541
3.99279
4.01066
4.02904
4.04794
4.06739
4.08739
4.10796
4.12912
4.15089
4.17328
4.1963
4.21999
4.24434
4.2694
4.29517
4.32168
4.34894
4.37699
4.40583
4.4355
3.91618
3.92519
3.93446
3.94399
3.95379
3.96388
3.97425
3.98492
3.99589
4.00718
4.01879
4.03073
4.04301
4.05564
4.06863
4.082
4.09574
4.10988
4.12442
4.13938
4.15476
4.17059
4.18686
4.2036
4.22082
4.23853
4.25675
4.27548
4.29475
4.31458
4.33496
4.35594
4.3775
4.39969
4.42251
4.44598
4.47012
4.49495
4.52049
4.54676
4.10901
4.11686
4.12493
4.13323
4.14177
4.15055
4.15958
4.16887
4.17842
4.18825
4.19835
4.20875
4.21944
4.23044
4.24175
4.25339
4.26535
4.27766
4.29032
4.30334
4.31674
4.33051
4.34468
4.35926
4.37425
4.38967
4.40553
4.42184
4.43862
4.45588
4.47363
4.49188
4.51066
4.52998
4.54985
4.57028
4.5913
4.61292
4.63515
4.65802
4.30185
4.30853
4.3154
4.32247
4.32974
4.33721
4.3449
4.35281
4.36095
4.36931
4.37792
4.38677
4.39587
4.40524
4.41487
4.42477
4.43496
4.44544
4.45622
4.46731
4.47871
4.49044
4.50251
4.51492
4.52768
4.54081
4.55431
4.5682
4.58248
4.59718
4.61229
4.62783
4.64382
4.66027
4.67718
4.69458
4.71248
4.73088
4.74981
4.76928
4.49469
4.5002
4.50588
4.51171
4.51771
4.52388
4.53023
4.53676
4.54347
4.55038
4.55748
4.56479
4.57231
4.58003
4.58799
4.59616
4.60457
4.61322
4.62212
4.63128
4.64069
4.65037
4.66033
4.67057
4.68111
4.69195
4.70309
4.71456
4.72635
4.73848
4.75095
4.76378
4.77698
4.79056
4.80452
4.81888
4.83365
4.84885
4.86447
4.88055
4.68752
4.69187
4.69635
4.70095
4.70568
4.71055
4.71556
4.7207
4.726
4.73145
4.73705
4.74281
4.74874
4.75483
4.7611
4.76755
4.77418
4.78101
4.78802
4.79524
4.80266
4.8103
4.81815
4.82623
4.83454
4.84308
4.85187
4.86092
4.87021
4.87978
4.88962
4.89973
4.91014
4.92085
4.93186
4.94318
4.95483
4.96681
4.97913
4.99181
4.88036
4.88355
4.88682
4.89019
4.89365
4.89722
4.90088
4.90465
4.90853
4.91251
4.91661
4.92083
4.92517
4.92963
4.93422
4.93894
4.94379
4.94879
4.95392
4.95921
4.96464
4.97023
4.97598
4.98189
4.98797
4.99422
5.00066
5.00727
5.01408
5.02108
5.02828
5.03568
5.0433
5.05114
5.05919
5.06748
5.07601
5.08478
5.0938
5.10307
5.03879
5.04132
5.04392
5.0466
5.04935
5.05218
5.05509
5.05809
5.06117
5.06434
5.0676
5.07095
5.0744
5.07795
5.0816
5.08535
5.08921
5.09318
5.09727
5.10147
5.10579
5.11023
5.1148
5.1195
5.12434
5.12931
5.13443
5.13969
5.14511
5.15067
5.1564
5.16229
5.16835
5.17458
5.18099
5.18758
5.19436
5.20134
5.20851
5.21589
5.16272
5.16511
5.16757
5.1701
5.17271
5.17538
5.17814
5.18097
5.18389
5.18689
5.18997
5.19314
5.1964
5.19976
5.20321
5.20676
5.21041
5.21417
5.21803
5.22201
5.22609
5.2303
5.23462
5.23907
5.24364
5.24835
5.25319
5.25817
5.26329
5.26855
5.27397
5.27954
5.28527
5.29117
5.29723
5.30347
5.30988
5.31648
5.32326
5.33024
5.28664
5.2889
5.29122
5.29361
5.29606
5.29859
5.30119
5.30386
5.30661
5.30943
5.31234
5.31533
5.31841
5.32157
5.32482
5.32817
5.33161
5.33516
5.3388
5.34254
5.3464
5.35036
5.35444
5.35863
5.36295
5.36738
5.37194
5.37664
5.38147
5.38643
5.39154
5.39679
5.4022
5.40775
5.41347
5.41935
5.4254
5.43162
5.43802
5.4446
5.41057
5.41269
5.41487
5.41711
5.41942
5.42179
5.42423
5.42674
5.42932
5.43198
5.43471
5.43752
5.44041
5.44338
5.44644
5.44958
5.45282
5.45614
5.45956
5.46308
5.4667
5.47043
5.47426
5.4782
5.48225
5.48641
5.4907
5.49511
5.49965
5.50431
5.50911
5.51404
5.51912
5.52434
5.52971
5.53523
5.54091
5.54676
5.55277
5.55895
5.5345
5.53648
5.53852
5.54062
5.54277
5.54499
5.54728
5.54962
5.55204
5.55452
5.55708
5.55971
5.56241
5.56519
5.56805
5.57099
5.57402
5.57713
5.58033
5.58362
5.58701
5.59049
5.59407
5.59776
5.60155
5.60545
5.60946
5.61358
5.61783
5.62219
5.62668
5.63129
5.63604
5.64093
5.64595
5.65112
5.65643
5.6619
5.66752
5.67331
5.65842
5.66027
5.66217
5.66412
5.66613
5.6682
5.67032
5.67251
5.67476
5.67707
5.67945
5.68189
5.68441
5.687
5.68966
5.6924
5.69522
5.69811
5.7011
5.70416
5.70731
5.71056
5.71389
5.71732
5.72085
5.72448
5.72822
5.73206
5.73601
5.74007
5.74425
5.74854
5.75297
5.75751
5.76219
5.767
5.77195
5.77704
5.78227
5.78766
5.78235
5.78406
5.78582
5.78763
5.78949
5.7914
5.79337
5.79539
5.79747
5.79961
5.80182
5.80408
5.80641
5.80881
5.81127
5.81381
5.81642
5.8191
5.82186
5.8247
5.82762
5.83062
5.83371
5.83689
5.84015
5.84352
5.84697
5.85053
5.85418
5.85795
5.86182
5.8658
5.86989
5.8741
5.87843
5.88288
5.88747
5.89218
5.89703
5.90201
5.90628
5.90785
5.90947
5.91113
5.91284
5.9146
5.91641
5.91827
5.92019
5.92216
5.92419
5.92627
5.92841
5.93062
5.93289
5.93522
5.93762
5.94009
5.94263
5.94524
5.94792
5.95069
5.95353
5.95645
5.95946
5.96255
5.96573
5.969
5.97236
5.97583
5.97939
5.98305
5.98681
5.99069
5.99467
5.99877
6.00298
6.00732
6.01178
6.01637
6.0302
6.03164
6.03312
6.03463
6.0362
6.0378
6.03946
6.04116
6.04291
6.0447
6.04656
6.04846
6.05042
6.05243
6.0545
6.05663
6.05882
6.06107
6.06339
6.06578
6.06823
6.07075
6.07335
6.07601
6.07876
6.08158
6.08449
6.08747
6.09054
6.0937
6.09695
6.1003
6.10374
6.10727
6.11091
6.11465
6.1185
6.12246
6.12653
6.13072
6.15413
6.15543
6.15676
6.15814
6.15955
6.16101
6.1625
6.16404
6.16562
6.16725
6.16892
6.17065
6.17242
6.17424
6.17611
6.17804
6.18002
6.18206
6.18416
6.18632
6.18853
6.19082
6.19316
6.19558
6.19806
6.20062
6.20324
6.20594
6.20872
6.21158
6.21452
6.21755
6.22066
6.22386
6.22715
6.23054
6.23402
6.2376
6.24128
6.24507
6.27806
6.27922
6.28041
6.28164
6.28291
6.28421
6.28555
6.28692
6.28834
6.2898
6.29129
6.29283
6.29442
6.29605
6.29773
6.29945
6.30122
6.30305
6.30492
6.30685
6.30884
6.31088
6.31298
6.31514
6.31736
6.31965
6.322
6.32442
6.3269
6.32946
6.33209
6.3348
6.33758
6.34045
6.34339
6.34642
6.34954
6.35274
6.35604
6.35943
6.40198
6.40301
6.40406
6.40515
6.40626
6.40741
6.40859
6.40981
6.41106
6.41234
6.41366
6.41502
6.41642
6.41786
6.41934
6.42086
6.42242
6.42403
6.42569
6.42739
6.42914
6.43095
6.4328
6.4347
6.43667
6.43868
6.44076
6.44289
6.44508
6.44734
6.44966
6.45205
6.45451
6.45703
6.45963
6.4623
6.46505
6.46788
6.47079
6.47378
6.52591
6.5268
6.52771
6.52865
6.52962
6.53061
6.53164
6.53269
6.53377
6.53489
6.53603
6.53721
6.53842
6.53967
6.54095
6.54227
6.54363
6.54502
6.54646
6.54793
6.54945
6.55101
6.55262
6.55427
6.55597
6.55772
6.55951
6.56136
6.56326
6.56522
6.56723
6.5693
6.57143
6.57362
6.57587
6.57819
6.58057
6.58302
6.58554
6.58813
6.64984
6.65059
6.65136
6.65216
6.65298
6.65382
6.65468
6.65557
6.65649
6.65743
6.6584
6.6594
6.66042
6.66148
6.66256
6.66368
6.66483
6.66601
6.66722
6.66847
6.66975
6.67108
6.67243
6.67383
6.67527
6.67675
6.67827
6.67983
6.68144
6.6831
6.6848
6.68655
6.68835
6.69021
6.69211
6.69407
6.69609
6.69816
6.70029
6.70249
6.77376
6.77438
6.77501
6.77566
6.77633
6.77702
6.77773
6.77846
6.77921
6.77998
6.78077
6.78159
6.78243
6.78329
6.78418
6.78509
6.78603
6.78699
6.78799
6.78901
6.79006
6.79114
6.79225
6.7934
6.79457
6.79578
6.79703
6.79831
6.79962
6.80098
6.80237
6.8038
6.80528
6.80679
6.80835
6.80996
6.8116
6.8133
6.81505
6.81684
6.89769
6.89817
6.89866
6.89917
6.89969
6.90022
6.90077
6.90134
6.90192
6.90252
6.90314
6.90377
6.90443
6.9051
6.90579
6.9065
6.90723
6.90798
6.90875
6.90955
6.91036
6.91121
6.91207
6.91296
6.91387
6.91482
6.91578
6.91678
6.9178
6.91886
6.91994
6.92105
6.9222
6.92338
6.92459
6.92584
6.92712
6.92844
6.9298
6.93119
7.02162
7.02196
7.02231
7.02267
7.02304
7.02343
7.02382
7.02422
7.02464
7.02507
7.02551
7.02596
7.02643
7.02691
7.0274
7.02791
7.02843
7.02897
7.02952
7.03009
7.03067
7.03127
7.03189
7.03252
7.03318
7.03385
7.03454
7.03525
7.03598
7.03674
7.03751
7.03831
7.03912
7.03997