/*--------------------------------*- C++ -*----------------------------------*\
| =========                 |                                                 |
| \\      /  F ield         | OpenFOAM: The Open Source CFD Toolbox           |
|  \\    /   O peration     | Version:  2312                                  |
|   \\  /    A nd           | Website:  www.openfoam.com                      |
|    \\/     M anipulation  |                                                 |
\*---------------------------------------------------------------------------*/
FoamFile
{
    version     2.0;
    format      ascii;
    arch        "LSB;label=32;scalar=64";
    class       volScalarField;
    location    "constant";
    object      Cz;
}
// * * * * * * * * * * * * * * * * * * * * * * * * * * * * * * * * * * * * * //

dimensions      [0 1 0 0 0 0 0];

internalField   nonuniform List<scalar> 
3780
(
9.57597e-19
4.86699e-20
-9.24789e-21
3.82003e-19
-7.55648e-19
3.85113e-19
9.17202e-20
-1.18337e-18
-9.74904e-19
1.30965e-18
-2.38249e-18
-1.45497e-18
-2.61532e-19
2.35757e-18
2.25765e-18
-3.55243e-18
4.69132e-20
1.21129e-18
1.22381e-18
8.88102e-19
-2.83434e-19
1.35217e-18
0
-5.19754e-18
7.80325e-19
-3.68269e-20
-3.6845e-20
-5.20151e-18
-3.86453e-18
-5.14547e-18
-3.73684e-18
0
0
1.25213e-18
1.40663e-18
-2.50832e-18
-2.47649e-18
5.86817e-19
0
2.48144e-18
1.43765e-18
0
3.08837e-19
-9.03092e-19
1.4459e-18
-1.27787e-18
1.84993e-18
5.3754e-19
-4.8533e-19
-1.54215e-18
-5.21213e-19
2.49098e-18
1.2974e-18
0
-1.99988e-19
-7.26228e-19
5.46475e-18
-2.51e-18
9.30546e-20
6.28235e-19
1.33936e-18
-2.1783e-18
-2.63853e-18
3.53864e-18
-8.18996e-18
3.96919e-19
-1.28089e-18
3.87163e-20
-6.98271e-18
6.10847e-18
2.13626e-18
-6.80418e-18
7.27004e-18
4.47579e-18
4.64693e-19
4.44204e-18
-4.93184e-18
2.56475e-18
-1.69123e-18
4.85465e-18
1.80039e-18
-2.88354e-19
-4.52437e-19
-1.02309e-18
2.11785e-18
5.36932e-19
-4.84399e-19
-6.3524e-19
2.23773e-20
3.59049e-20
-7.80952e-19
2.67517e-18
1.25302e-19
-7.39206e-20
-8.31928e-19
1.27676e-18
9.00077e-20
5.1938e-18
-1.80405e-18
-1.82156e-18
1.44837e-19
6.19205e-18
-4.44917e-18
1.48336e-19
0
1.2988e-19
-2.25802e-19
-2.17899e-18
-1.48513e-19
-8.14872e-19
1.77305e-18
-7.63808e-18
8.09588e-19
-4.37162e-18
-2.3834e-18
5.69769e-18
-1.76617e-18
-2.29822e-18
-3.70765e-19
-6.84739e-18
0
7.84813e-19
-6.35803e-19
-1.28909e-18
-9.66156e-21
-5.14448e-19
8.00891e-19
-1.01669e-19
2.66555e-18
3.73143e-19
2.3204e-18
3.24858e-19
-1.54986e-18
6.0292e-19
-2.58673e-18
9.97065e-19
9.67686e-19
-1.32736e-18
-1.91158e-20
1.39355e-19
1.93258e-18
1.46398e-19
1.5027e-18
-1.63384e-18
-3.86109e-20
3.69881e-18
-2.03695e-18
-5.59706e-19
8.16726e-18
2.01489e-18
-1.09698e-17
-9.22301e-19
-3.38826e-18
3.98236e-19
-2.13074e-18
-1.74491e-18
-5.95631e-18
3.51221e-18
-5.76944e-18
-9.08814e-18
-2.34535e-20
-3.49356e-19
-2.19854e-18
-9.65754e-21
-9.16733e-19
2.16567e-18
-6.92867e-20
4.68595e-19
1.09308e-18
-7.64214e-19
-3.71006e-18
1.13993e-19
2.13537e-18
1.66538e-18
1.14723e-18
-3.04729e-18
-4.35289e-18
4.98529e-19
2.89355e-18
-4.58981e-18
-2.7683e-18
5.33721e-18
1.96477e-18
4.41058e-18
5.87796e-19
-2.09042e-19
1.48368e-19
-1.60449e-18
6.30782e-18
2.22483e-18
3.22842e-18
-4.927e-18
8.30358e-18
-5.73826e-18
-5.09336e-18
8.20616e-18
5.03095e-18
5.13731e-19
-5.5233e-18
-4.39237e-19
6.76808e-19
3.12037e-19
0
-1.70109e-19
2.19146e-18
7.08194e-19
-6.27167e-19
1.27441e-19
-1.92713e-18
1.76163e-18
3.27161e-18
6.35891e-19
8.52387e-20
1.46564e-19
-5.67062e-19
4.25706e-18
-2.7468e-19
-2.42966e-19
1.79718e-18
-3.12694e-18
-4.23914e-18
6.22512e-18
1.94963e-19
3.2619e-18
1.15711e-18
4.5829e-19
3.39523e-20
1.80088e-18
-4.40357e-18
-2.35534e-18
2.26244e-18
4.33567e-18
-3.71117e-19
3.87155e-20
7.32804e-18
-4.13711e-18
-3.87481e-20
-5.88054e-19
-9.97191e-18
-4.29637e-19
3.068e-19
5.32268e-19
9.5967e-20
-8.05977e-19
1.22873e-18
1.40297e-18
-1.06631e-18
-9.58591e-21
-1.91573e-20
-9.29456e-20
-1.38804e-18
1.00598e-18
9.88549e-19
1.11739e-18
2.92198e-18
-4.76542e-19
2.2573e-18
-4.63637e-18
3.46162e-19
5.83668e-19
-2.66476e-20
-4.35273e-18
-1.05273e-17
2.15648e-18
1.95793e-18
1.11708e-17
0
6.08811e-18
1.19855e-17
7.62298e-19
3.89524e-18
2.41818e-18
3.63409e-18
3.81506e-18
-7.49184e-18
-1.68737e-18
2.40772e-18
7.74677e-18
4.16515e-18
-1.51479e-17
-1.26516e-18
-8.17262e-20
2.2693e-18
1.05508e-18
6.02036e-19
6.3539e-19
-9.57814e-21
-7.14177e-19
-9.08951e-20
7.16305e-19
1.00108e-18
9.30733e-19
9.566e-19
-1.93931e-18
2.71107e-18
1.90639e-20
1.11037e-18
-3.07862e-18
-3.80911e-20
0
-1.26478e-18
-3.64142e-18
-2.19693e-18
-3.96845e-18
3.89184e-18
-3.03932e-18
-5.06537e-18
-1.63585e-18
-1.32093e-19
-1.1758e-17
-3.86377e-20
3.34027e-18
-3.1731e-18
3.1368e-18
2.7901e-18
9.3528e-18
-3.44024e-18
-6.88314e-18
0
6.34382e-20
-4.78891e-19
-2.19692e-18
-6.46659e-19
-1.51766e-18
4.52757e-19
6.63055e-19
8.85052e-20
2.54942e-18
1.079e-18
-1.26057e-19
1.23588e-18
-1.28698e-19
-1.69713e-18
1.45229e-18
2.62789e-19
2.31344e-19
-1.89427e-18
2.90487e-18
-2.68761e-18
-3.80491e-20
0
4.95436e-18
-1.23199e-18
-4.25854e-18
-3.70347e-18
3.34876e-19
-2.94765e-18
3.56851e-19
-8.19026e-18
-2.52545e-18
4.98451e-19
-1.23052e-19
-5.35607e-18
-1.48431e-19
-3.49497e-18
1.02571e-17
8.27228e-18
5.51821e-18
-7.74381e-20
-1.84566e-17
-5.0315e-20
2.76943e-18
1.40751e-18
-9.9029e-19
4.51648e-19
2.42746e-18
7.48965e-19
-5.83587e-19
1.16195e-18
-6.16165e-19
-5.35368e-18
9.50856e-19
-2.47679e-18
-1.97826e-18
2.18888e-19
-1.66516e-18
-1.65065e-18
1.47581e-18
-8.1467e-18
7.74026e-20
-2.74195e-18
-3.57577e-18
-7.69725e-18
-5.76765e-18
2.69177e-18
-1.1803e-17
4.58932e-18
4.68909e-18
4.78442e-18
-4.46676e-18
-9.29178e-18
-2.20719e-19
-1.64721e-18
8.19844e-18
-6.40015e-18
-4.7435e-19
2.04817e-17
-4.31344e-18
1.30207e-17
1.84955e-17
-6.75069e-19
1.86648e-18
-5.78734e-19
1.08392e-19
1.44923e-19
1.47007e-18
1.19435e-18
-1.15571e-20
2.22493e-18
-2.34743e-18
-3.62529e-18
-3.53873e-18
-2.00549e-18
1.81425e-18
-1.88605e-18
1.20415e-18
-1.24125e-18
-5.85183e-18
-3.84633e-18
-2.10326e-18
3.29524e-19
-1.37537e-17
-5.58045e-18
-4.72147e-18
4.35187e-18
2.81629e-18
-4.08997e-18
0
0
-8.27488e-19
1.03102e-18
2.82817e-18
-4.5101e-20
7.75882e-18
7.86709e-18
-7.6651e-18
4.94055e-19
8.36822e-18
-7.87247e-18
3.78427e-18
0
5.58761e-19
-2.35607e-19
1.66185e-18
9.0585e-20
8.22921e-20
-1.24576e-18
1.91525e-18
-1.43759e-19
-2.2796e-19
-1.44523e-18
1.90015e-20
0
1.63038e-18
-7.36082e-20
6.16633e-18
-2.02446e-18
-3.87798e-18
-8.42686e-18
7.84408e-18
-2.04391e-18
-3.4504e-19
-1.16135e-18
-3.21586e-18
-3.29213e-19
-3.80301e-18
-3.23865e-18
6.65653e-18
8.88779e-19
6.24257e-18
5.25333e-19
8.19652e-19
0
3.99604e-18
-9.28943e-18
-2.8719e-18
-8.80617e-18
-3.74202e-19
-9.68449e-18
5.3431e-18
4.83243e-19
7.10569e-19
1.29149e-19
-5.23102e-19
-2.21016e-18
-1.12264e-18
3.00776e-18
-1.2051e-19
8.69494e-19
4.26497e-18
2.25841e-18
0
1.94471e-20
-1.64005e-18
-3.61895e-18
-3.61303e-19
8.3994e-18
2.62502e-18
-2.09689e-19
-3.45723e-19
4.89588e-19
9.60547e-18
9.61959e-19
-4.17989e-19
6.02749e-18
6.97515e-18
-1.79122e-18
-6.89704e-18
-7.94225e-20
-1.15138e-17
4.56265e-19
-4.19764e-18
-7.96064e-20
7.96445e-20
4.94187e-18
-4.75244e-18
-7.14204e-18
-5.90789e-18
1.21156e-17
3.81395e-18
-4.47109e-19
8.09754e-20
6.14868e-19
-5.06303e-19
4.31972e-19
5.69008e-20
2.85049e-18
-1.21175e-19
-1.04997e-19
-1.79576e-18
-1.49957e-18
-8.9154e-19
-1.22146e-18
3.37478e-19
-3.84484e-18
-3.40725e-18
4.95462e-18
-1.87968e-18
-2.20253e-18
-1.45752e-18
-3.93948e-20
-2.34685e-18
-6.22211e-18
-9.14885e-19
4.86259e-18
2.46059e-18
-6.53463e-18
6.42609e-18
1.32467e-17
3.59535e-18
-4.84589e-18
2.88371e-19
-1.17263e-17
-4.99312e-19
7.88469e-18
-8.5669e-18
7.34327e-19
-7.97745e-20
8.39573e-19
-1.02229e-17
-9.35855e-19
-5.66322e-20
6.55108e-19
-2.17748e-18
-2.41115e-20
8.09956e-19
2.60592e-18
-1.93602e-20
3.12488e-18
3.36325e-18
-2.05431e-18
0
-2.4147e-19
-2.18061e-18
1.7361e-18
1.71492e-18
-4.77119e-18
-2.53784e-18
-2.1544e-18
-3.78624e-18
7.06967e-18
9.3971e-18
5.4538e-18
5.03201e-19
1.93196e-18
4.18306e-18
-8.69496e-18
8.52469e-19
1.05715e-17
8.40583e-18
8.37785e-19
-4.63718e-18
3.8395e-19
8.33649e-18
-7.96816e-20
-4.2143e-19
1.25476e-17
8.86049e-19
5.19894e-18
-4.02729e-18
-4.50359e-19
6.42436e-19
1.40692e-18
-1.12643e-18
1.96043e-18
7.25256e-20
-1.32199e-18
-1.02041e-18
-9.90573e-19
-1.84491e-19
-1.94197e-20
-6.55219e-18
-8.95887e-19
-1.7511e-18
2.06795e-19
1.5708e-18
1.38364e-18
-2.44435e-18
2.22871e-19
5.82895e-18
2.5576e-18
2.49927e-18
4.84291e-18
-1.89955e-18
-5.34798e-18
-6.69996e-18
8.67305e-18
-1.0633e-17
-8.60475e-18
-1.64924e-18
-1.16378e-17
-7.9568e-20
7.96088e-20
1.17691e-17
2.63589e-19
4.03265e-18
-5.04129e-19
-3.95728e-18
-3.96445e-18
-3.65837e-18
-5.15203e-19
-3.61287e-19
-5.6638e-19
-1.78969e-19
1.90306e-18
-9.92211e-20
6.83908e-19
-2.51642e-18
0
-1.53953e-19
3.03343e-19
1.69032e-18
4.60885e-18
2.05397e-19
3.89572e-18
4.61694e-18
-4.70474e-19
1.56384e-18
2.47206e-18
4.49572e-18
-2.84766e-18
-2.84724e-18
1.754e-18
2.61998e-18
4.68705e-18
4.85655e-19
-1.64328e-18
1.278e-18
9.06446e-18
-6.6061e-18
-5.59801e-18
8.42036e-18
7.24633e-18
-4.61777e-18
-3.86031e-18
-4.79168e-18
7.40711e-19
-3.80125e-18
3.35696e-18
-2.38549e-19
-2.41348e-20
-6.91547e-19
7.55332e-19
-9.62398e-21
0
1.59673e-18
6.68174e-19
1.46551e-18
-1.20404e-18
0
-1.14204e-19
3.94356e-19
3.31085e-18
0
-9.04054e-19
3.06396e-18
4.33862e-19
1.90038e-18
-3.90259e-20
3.56628e-18
7.45695e-18
3.01577e-18
5.02862e-19
-4.3353e-19
-7.53931e-18
4.26859e-18
-1.97043e-20
-5.76257e-18
8.55751e-18
0
-8.65131e-18
8.9895e-18
-7.96105e-20
7.7114e-18
-8.91633e-18
-4.39198e-18
-1.24889e-17
-1.23415e-17
-8.63016e-19
-1.32919e-17
-3.43176e-19
1.34832e-18
-2.03711e-18
1.57598e-18
-1.80164e-18
-1.72376e-18
-3.04499e-18
1.16538e-18
8.39711e-19
-2.49367e-19
1.21105e-18
1.72824e-19
-2.32333e-18
-4.46131e-18
-1.87531e-18
1.94619e-18
-1.1274e-19
0
0
1.90526e-18
3.93984e-20
1.06322e-18
-1.95025e-18
-2.25116e-18
-1.67365e-18
0
-4.33564e-19
4.19592e-19
1.50056e-17
-4.42414e-19
-3.60014e-19
-8.17386e-18
7.28895e-19
-5.13949e-19
5.13218e-19
-1.20089e-17
5.13015e-19
5.72024e-19
0
-8.58077e-18
-1.82392e-18
0
-2.3784e-19
3.75545e-20
-2.25961e-18
-1.58096e-20
-1.93433e-20
0
1.01349e-18
-8.80786e-19
-2.28138e-18
4.20346e-18
-1.24428e-18
8.78767e-19
-2.38108e-18
-3.90818e-19
-3.63531e-19
-6.92571e-19
-3.15458e-19
1.62678e-18
2.39007e-18
7.44619e-18
-3.95032e-20
7.37411e-18
2.04443e-18
4.73769e-18
2.1235e-18
7.21178e-18
-4.67117e-18
-7.92395e-19
-4.14272e-18
-8.13337e-18
1.73853e-18
2.50079e-18
8.08144e-18
-5.15935e-19
-6.67472e-19
-5.1068e-18
-7.98063e-20
7.0907e-19
-9.37606e-19
-3.67471e-19
-8.97519e-19
1.1239e-18
-6.02719e-19
-7.12358e-19
-1.39781e-18
-1.06626e-19
2.26208e-18
-8.25435e-19
-7.90982e-19
-2.46087e-18
3.46597e-18
4.36449e-19
-1.39897e-18
2.28872e-19
-1.53978e-18
-1.74432e-18
-2.30324e-19
2.7106e-18
2.08886e-18
-3.94548e-20
0
4.24319e-18
5.14166e-19
3.88924e-18
6.79434e-18
2.16607e-18
2.5951e-18
-4.48553e-19
4.66008e-19
-1.25077e-20
-1.31106e-17
-4.18224e-18
-3.73542e-18
0
3.04564e-19
8.60274e-18
4.3073e-18
9.79803e-18
6.866e-20
0
8.21284e-19
5.73699e-19
-3.29729e-19
7.91245e-19
-1.09998e-19
-2.33184e-18
-1.09914e-19
-1.17709e-18
-1.24178e-19
-2.8985e-18
-3.64535e-18
-2.24248e-18
1.69823e-18
-1.98487e-18
-3.35138e-18
4.91417e-19
5.16545e-18
2.16092e-18
2.80437e-18
0
-5.19345e-18
1.51787e-19
-1.75653e-18
-1.76707e-20
-2.54833e-18
-8.94779e-18
1.66567e-18
-4.60709e-18
2.39476e-18
4.57087e-19
7.33096e-19
-1.95239e-19
7.96871e-20
-1.28871e-17
-4.42612e-18
-1.54407e-18
1.71011e-17
-6.33425e-19
-8.93997e-20
6.94181e-19
-6.40155e-19
-9.52401e-19
-9.64615e-21
-6.22479e-20
-1.36366e-18
-1.0007e-18
-2.23182e-18
-9.32791e-19
-5.67551e-18
-4.11881e-18
2.90235e-18
-7.04333e-19
4.93225e-18
-3.21114e-18
1.36812e-18
8.5081e-18
1.14536e-17
-4.17469e-18
-7.93874e-18
2.3056e-19
5.53292e-18
-9.99455e-18
-1.99173e-18
-5.25467e-18
2.21977e-18
2.19376e-18
8.53259e-19
-1.64029e-20
1.0989e-17
-8.84055e-18
1.63407e-18
5.73143e-18
6.14989e-18
-4.45443e-18
3.56409e-18
3.79911e-18
3.51508e-18
-8.26756e-18
-4.39712e-19
1.1167e-18
-1.48405e-18
-1.65935e-18
-1.40992e-18
8.37317e-19
1.38357e-19
8.20517e-19
1.13196e-18
-1.94111e-20
-2.60088e-18
-1.61306e-18
1.94562e-20
-3.26087e-18
2.85224e-18
-1.81029e-18
1.72015e-18
2.68037e-18
4.33769e-18
-4.10823e-19
5.21509e-19
-3.40625e-18
-4.87455e-18
3.95498e-20
-1.9144e-19
-4.33519e-18
-2.88547e-19
4.34201e-18
0
5.37489e-19
4.16028e-18
-4.52229e-18
4.50051e-19
-4.26931e-18
-6.65773e-18
1.56382e-17
1.37727e-17
5.09777e-18
2.64238e-18
-4.66771e-18
-8.61991e-19
3.73845e-19
1.31996e-18
-1.06993e-19
8.33685e-19
0
2.0383e-18
-1.16802e-18
0
2.06601e-18
-2.94436e-18
1.33696e-19
1.02277e-18
3.14954e-18
-6.92424e-19
-1.95648e-18
-6.03837e-18
7.15853e-19
2.20608e-18
-3.24932e-18
0
1.95868e-20
4.24914e-18
-2.34869e-18
1.78517e-18
2.23934e-18
-6.54054e-18
-8.6986e-18
-7.2641e-18
2.53233e-18
-3.87309e-18
-8.57769e-18
8.24909e-20
2.27946e-18
4.67586e-18
-6.31335e-18
-4.51891e-19
9.18533e-18
2.45431e-17
-1.01442e-18
9.10558e-19
-2.37844e-20
1.46791e-18
1.24825e-18
3.02168e-18
-8.45928e-19
2.28367e-18
-2.5129e-18
-2.23078e-18
4.7532e-18
1.44946e-19
1.48851e-19
-2.59747e-18
-4.45853e-18
1.91914e-18
-1.63395e-18
1.25035e-18
4.01473e-18
2.22099e-18
-4.14133e-18
3.00174e-18
2.46679e-18
-4.93943e-18
2.3678e-18
-6.71853e-18
4.58886e-19
-6.42649e-18
8.58209e-19
1.08597e-17
8.6553e-18
-1.83662e-18
-2.06085e-18
-1.2874e-17
-2.13225e-18
-5.16115e-18
-6.82228e-18
-1.36017e-18
3.33303e-18
1.04639e-17
3.72605e-18
0
-1.22552e-18
4.72063e-21
5.90763e-19
9.64999e-21
1.50508e-18
1.2439e-18
-1.14439e-18
1.15034e-18
-2.59732e-18
-2.47597e-18
-2.30463e-18
1.20183e-18
-1.23949e-18
2.59096e-18
-1.64472e-18
-3.75375e-19
-1.11498e-18
2.38706e-18
-3.8999e-18
-3.80114e-18
7.17433e-18
2.83626e-18
-1.84134e-18
4.94642e-19
-2.92268e-18
-2.58529e-18
5.25367e-18
3.50383e-18
2.09503e-18
9.04293e-18
-6.46148e-18
3.74124e-19
1.47019e-18
0
-4.65341e-18
-2.1908e-19
3.89556e-18
-9.19496e-19
4.37403e-18
2.41363e-20
1.21744e-18
1.41152e-18
-9.63483e-21
-1.84233e-18
-8.64352e-19
-1.59828e-18
-6.11533e-19
6.25656e-19
1.01855e-18
-4.52595e-18
1.40576e-18
6.35457e-18
2.51228e-18
-1.15816e-18
3.43987e-18
-3.49763e-20
3.46435e-19
-1.05108e-17
-3.89369e-18
5.35391e-20
2.61271e-18
3.63373e-18
-6.80681e-18
0
6.81043e-18
-6.76155e-19
4.06265e-18
-4.89855e-18
6.4452e-20
4.66537e-18
8.51832e-19
-8.39601e-18
2.15507e-18
-1.28106e-19
-7.00211e-19
-8.38004e-18
3.82383e-19
-5.16112e-18
3.98351e-18
-9.21256e-19
0
-1.01977e-18
-1.17195e-18
-3.64753e-19
8.31173e-19
-1.11254e-19
2.12633e-18
-2.13631e-18
-1.02415e-18
1.94328e-20
-1.94673e-18
2.64415e-18
1.33475e-18
-3.01876e-18
1.67782e-18
3.11839e-18
2.76142e-19
-3.23982e-19
3.90525e-20
-7.21181e-19
-1.59393e-18
2.75297e-18
-2.72055e-18
4.80518e-19
-5.02849e-18
-1.8252e-18
4.8263e-19
6.39647e-18
9.20037e-18
1.61453e-17
4.44951e-18
-7.96198e-20
3.86304e-19
-1.85172e-17
-4.6487e-19
2.10289e-17
4.80064e-18
9.07397e-18
2.2631e-17
-1.37525e-18
1.63581e-19
-1.3235e-18
5.48054e-19
9.65289e-21
1.16545e-18
5.70547e-19
-7.13317e-19
1.16924e-18
-9.35032e-19
1.2688e-19
-4.34816e-18
-5.32137e-19
-2.53233e-19
-4.01271e-18
1.79639e-20
-1.93819e-18
1.90019e-19
-2.28218e-18
-3.90536e-20
5.30847e-18
-5.68794e-18
3.98797e-18
-2.43369e-18
5.05155e-19
-2.0459e-18
3.96618e-20
-8.76395e-18
0
1.33891e-18
-4.48901e-18
4.32173e-18
1.09608e-17
9.77824e-18
2.56669e-18
6.30205e-18
-9.71652e-18
4.75226e-18
0
4.30818e-18
-4.52195e-19
4.30896e-19
7.48884e-19
1.65573e-18
6.97168e-19
6.40282e-20
-2.36015e-18
5.83508e-19
0
1.88147e-18
1.94349e-20
-1.79124e-20
-1.53794e-19
-1.07771e-18
-4.26377e-18
1.81094e-19
4.07693e-18
7.21658e-18
4.82485e-18
4.27787e-18
2.15501e-18
-2.70409e-18
9.76032e-18
-2.21969e-18
-5.48328e-19
1.67779e-18
-4.94931e-19
0
-4.8501e-19
-1.89812e-18
-4.75981e-18
-8.30565e-18
7.96216e-20
-6.68559e-18
4.41298e-19
-4.77789e-18
-4.8588e-18
6.89045e-19
1.16125e-17
3.14886e-18
-4.07695e-19
-9.00706e-19
4.56107e-19
2.91094e-18
-6.06269e-19
1.82161e-18
9.68076e-21
-2.50345e-18
1.62865e-18
1.59142e-19
9.82862e-19
5.97123e-20
7.57949e-19
-9.49186e-20
2.76889e-18
3.75322e-18
-3.90096e-20
3.19193e-18
-4.87556e-18
1.88435e-18
6.31183e-18
-3.94627e-20
-1.87292e-18
4.58293e-18
8.95263e-19
2.35235e-18
-5.38133e-19
2.33681e-18
-2.65938e-18
4.84725e-19
-7.95385e-20
7.48118e-18
5.30581e-18
-3.96478e-19
-7.10673e-18
-4.75051e-19
7.48853e-18
-1.79401e-17
-2.29995e-18
-1.5954e-17
0
0
-3.37935e-18
0
-5.37623e-19
-4.164e-19
6.46541e-19
-9.24317e-19
-3.81258e-18
1.24067e-18
-9.16823e-19
-2.59179e-18
-2.71406e-19
-9.47796e-20
-3.22791e-18
0
-5.49182e-18
-2.63758e-18
2.26267e-18
0
0
4.60011e-18
4.85105e-18
5.23217e-19
7.05611e-19
0
-1.91323e-19
0
1.09908e-17
2.40606e-18
-5.47134e-18
0
-4.94354e-18
-2.84857e-18
-1.02276e-17
2.45938e-18
4.92004e-18
0
0
7.32675e-18
0
9.2788e-19
-1.55007e-18
0
0
-1.479e-18
-1.80614e-18
1.39099e-18
7.16251e-19
0
0
-8.24313e-19
2.80221e-18
-2.71564e-18
0
-6.21333e-18
-3.21667e-19
2.82942e-19
-4.98185e-19
2.5216e-18
4.64283e-18
-9.06649e-18
1.94939e-18
-2.25455e-18
8.89899e-18
-2.88236e-18
0
0
-4.90825e-18
-4.86745e-19
-3.05079e-18
-5.49165e-18
0
2.53752e-18
-5.45024e-18
-1.59572e-17
0
-5.45411e-18
-2.92395e-18
-4.79971e-19
0
1.40711e-18
9.14924e-19
0
-1.13937e-18
4.91279e-19
-1.55311e-19
-3.17545e-18
0
0
0
8.48535e-19
-2.71406e-19
1.39494e-18
2.28027e-18
-2.19147e-18
-3.21667e-19
1.83029e-18
-4.98185e-19
3.79028e-18
8.01965e-18
0
1.991e-18
5.23217e-19
6.13722e-18
0
0
-2.89661e-18
9.10542e-18
-4.86745e-19
-4.83674e-19
-5.64176e-18
0
0
2.60778e-18
-5.59574e-18
0
0
0
-1.09672e-17
-8.48424e-19
0
7.96289e-19
0
5.39225e-19
-4.72307e-20
8.13845e-19
-8.92846e-19
-1.41203e-18
4.29775e-18
3.09482e-18
8.7347e-19
-2.71406e-19
0
1.17364e-18
3.28062e-18
-5.94391e-18
-1.30987e-18
-4.98185e-19
2.66066e-18
0
-3.06758e-18
-5.85022e-18
3.65768e-18
5.14459e-19
-8.9373e-18
0
0
6.81993e-19
-4.86745e-19
-3.20388e-18
-3.08978e-18
-3.07952e-18
0
2.68441e-18
-1.45641e-17
1.1117e-17
8.44282e-18
-5.38312e-18
-3.17883e-18
0
4.70748e-20
0
7.02181e-19
1.30171e-18
1.60896e-18
2.94858e-19
-1.79018e-18
1.45074e-18
1.27515e-18
2.15355e-18
0
-2.71406e-19
1.37769e-18
2.41625e-18
0
-3.21667e-19
-3.18603e-18
4.02189e-18
1.46153e-18
1.61875e-18
-1.57886e-18
-6.02658e-18
5.25913e-18
-2.46458e-18
0
2.89814e-18
-2.86654e-18
4.90527e-19
-4.86745e-19
2.31647e-18
0
2.77536e-18
-3.83477e-19
-2.76329e-18
0
0
0
-1.50048e-17
2.29819e-18
0
1.03606e-18
-4.69009e-19
0
1.91138e-18
-5.83104e-19
-1.55311e-19
1.47219e-18
1.49059e-18
2.52502e-18
-4.4281e-18
0
-2.08009e-18
-2.93113e-18
2.58205e-18
4.55671e-18
1.59717e-18
2.82942e-19
9.87667e-19
0
1.85701e-18
3.44134e-18
3.42454e-19
5.23217e-19
5.14459e-19
-6.23456e-18
0
-3.14217e-18
6.52889e-18
2.79713e-18
-3.3661e-18
0
-1.14277e-17
2.84919e-18
6.07255e-18
-3.22625e-18
0
0
-1.8264e-17
-4.79971e-19
0
0
1.73714e-18
7.91218e-19
3.29267e-18
-1.74932e-18
2.32428e-18
6.92383e-19
0
3.31654e-18
1.18551e-18
-1.04748e-18
5.61973e-19
2.9197e-18
1.37497e-18
0
-1.11958e-18
2.82942e-19
-3.55721e-18
4.23251e-18
0
0
5.33399e-19
5.23217e-19
-8.72733e-19
-1.55522e-18
9.40422e-18
3.42027e-18
-2.51883e-18
-4.86745e-19
-1.31185e-17
-3.83283e-19
2.94087e-18
-2.93292e-18
0
3.30978e-18
0
6.24417e-18
0
-6.36764e-18
-1.2582e-18
-4.76909e-19
-1.78818e-18
-3.82959e-19
0
0
-1.55311e-19
-1.34643e-19
0
-6.43826e-19
-1.12287e-18
1.07548e-18
-2.71406e-19
-3.10027e-18
0
0
-7.62779e-18
2.82942e-19
-5.41133e-18
0
7.25346e-18
-6.88871e-18
-6.58738e-18
9.54977e-18
-2.92614e-18
0
0
0
4.90527e-19
-4.86745e-19
2.57064e-18
0
0
0
-3.83565e-19
-6.02424e-18
0
-6.03258e-18
0
-6.54065e-18
9.76871e-19
5.39381e-19
-9.20366e-19
-4.71631e-20
-6.778e-19
1.84801e-18
-1.55311e-19
1.80718e-18
9.46126e-20
-3.59768e-18
2.40643e-18
1.00957e-18
-1.24923e-18
-4.83027e-18
-1.35651e-18
0
-2.41468e-18
9.32072e-20
-2.11891e-18
-1.42793e-18
1.81758e-18
-1.77278e-18
1.13207e-17
5.23217e-19
5.14459e-19
-5.13515e-18
6.89084e-18
7.01142e-18
6.86815e-18
-4.86745e-19
-8.66848e-19
-7.02301e-18
-6.23248e-18
6.9826e-18
-6.20539e-18
3.10063e-18
0
0
-3.49482e-18
-4.79971e-19
6.5385e-19
0
5.20827e-19
-4.5296e-19
-6.97717e-19
-3.15015e-18
-2.49829e-19
-1.03674e-18
-9.46126e-20
0
-2.56905e-18
-1.13396e-18
-1.18043e-18
-7.9618e-19
1.39637e-18
0
-1.39892e-18
-1.8019e-18
-4.98185e-19
0
3.74197e-18
0
5.33399e-19
5.23217e-19
3.23306e-19
0
-1.67486e-18
0
3.77304e-18
9.66762e-18
-6.95658e-18
0
3.20781e-18
3.58262e-18
-6.38773e-18
3.19174e-18
0
0
0
-1.33242e-17
0
-9.04394e-19
0
-4.64884e-19
7.65419e-19
-2.61918e-18
-2.39225e-18
-1.34643e-19
-7.12138e-19
-1.40453e-18
0
-2.23428e-18
7.59084e-19
-8.19576e-19
1.4374e-18
0
-3.8381e-18
4.37426e-18
-4.12271e-18
3.02616e-18
0
1.8785e-18
5.33399e-19
5.23217e-19
5.14459e-19
0
9.00303e-18
1.70528e-18
3.8695e-18
-4.86745e-19
-4.83674e-19
0
0
0
0
0
0
0
0
-7.09079e-18
1.06336e-18
0
-1.00391e-18
0
7.39325e-19
-6.37573e-19
1.59324e-18
-1.34643e-19
8.30458e-19
-7.22903e-19
0
0
6.91828e-19
3.65898e-18
0
0
-3.21667e-19
-5.93114e-18
1.26966e-18
0
0
0
5.33399e-19
-1.52327e-18
5.14459e-19
-5.39267e-18
0
0
2.42113e-18
1.06334e-17
-4.83674e-19
0
7.1816e-18
0
0
0
0
6.77353e-18
0
-4.79971e-19
0
0
0
1.37506e-18
1.5693e-18
-7.03539e-19
3.17716e-19
-1.34643e-19
-1.70972e-18
-1.48829e-18
9.46893e-20
0
-1.76654e-19
0
-1.61793e-18
-1.33713e-18
-3.84679e-18
2.35007e-18
3.33117e-18
0
1.9069e-19
-1.03343e-17
5.33399e-19
-3.6788e-18
5.14459e-19
0
0
0
4.90527e-19
-4.86745e-19
2.66338e-18
-7.40817e-18
0
0
3.86734e-18
-7.34657e-18
0
0
-3.49305e-18
1.04115e-17
0
6.70501e-19
-5.7901e-19
9.11277e-19
2.39744e-18
0
-1.55311e-19
-1.14754e-18
8.79981e-19
-8.60666e-19
1.33598e-18
2.42849e-18
7.4927e-19
2.77669e-18
0
0
8.87905e-19
-2.03466e-18
3.43812e-18
1.84023e-18
0
-2.04902e-18
2.34691e-18
2.48929e-18
6.88712e-18
-2.09599e-18
5.64172e-18
0
6.81993e-19
-3.76084e-18
-4.83674e-19
0
-3.60181e-18
-1.51353e-17
-7.1723e-18
-3.58377e-18
-3.58469e-18
1.115e-17
-1.1171e-17
-4.08542e-18
0
1.00969e-18
0
-4.71631e-20
1.75447e-18
0
-7.56701e-19
-1.34643e-19
2.81213e-18
-2.55487e-18
9.46893e-20
-1.29589e-18
-2.71406e-19
9.2024e-19
1.70876e-18
1.60653e-18
-1.56678e-18
-4.09785e-18
1.43013e-18
-5.28658e-18
4.51573e-18
-2.10923e-18
-1.7209e-18
5.23217e-19
6.86638e-18
-1.96073e-18
0
0
6.37299e-18
1.39557e-18
-6.0948e-18
0
0
0
-4.0751e-18
1.18345e-17
0
-4.07798e-18
-4.08522e-18
7.32675e-18
0
4.70748e-20
0
2.53915e-18
0
9.8324e-19
3.87659e-18
-2.98881e-18
1.8311e-18
-2.01546e-18
0
0
-2.71406e-19
0
2.25223e-18
7.81199e-18
1.26959e-18
-4.10577e-18
-4.98185e-19
-1.89803e-19
0
0
5.33399e-19
5.23217e-19
-2.21974e-18
0
1.02786e-17
-1.91397e-19
6.81993e-19
-2.89233e-18
2.28984e-18
0
-7.49093e-18
-4.72556e-18
-5.10133e-18
7.07194e-18
0
9.8261e-18
-7.47935e-18
-1.03502e-17
0
0
-3.37335e-19
-4.71631e-20
0
1.28543e-18
2.25688e-18
-7.77044e-19
2.32703e-18
-9.71644e-19
-1.7893e-18
-3.1497e-18
-2.71406e-19
0
0
0
-3.21667e-19
2.82942e-19
1.87795e-18
0
4.37848e-18
0
-7.4761e-18
-7.34047e-18
-1.93753e-18
2.41607e-18
4.96213e-18
7.46097e-18
7.88609e-18
-1.03687e-19
-4.83674e-19
0
-4.95208e-18
2.66165e-18
-1.17556e-17
-4.54581e-18
0
-4.5521e-18
4.56094e-18
4.09334e-18
-2.40934e-20
0
-3.25256e-19
1.20884e-18
4.79067e-19
0
-1.55311e-19
-2.0874e-18
5.38119e-19
1.96836e-18
-3.45724e-18
0
-1.76654e-19
0
0
0
1.15767e-18
-2.69896e-18
6.56473e-18
0
2.76001e-18
0
5.33399e-19
2.92778e-18
3.0698e-18
0
0
0
4.90527e-19
-4.86745e-19
-4.83674e-19
2.21102e-18
4.4051e-18
0
-9.15546e-18
0
-2.57581e-18
4.3891e-18
-9.56298e-18
-7.47822e-18
0
-1.56448e-18
1.92878e-18
-5.37303e-19
0
-1.68782e-18
-2.31663e-18
-1.34643e-19
-1.13231e-18
-9.97959e-19
0
0
-2.71406e-19
0
2.96295e-18
1.62312e-18
-3.21667e-19
-3.67066e-18
-5.10598e-18
1.94623e-18
1.9069e-19
5.21418e-18
2.70616e-18
7.14271e-19
8.96763e-19
4.87477e-18
0
0
4.90527e-19
8.52157e-18
-4.83674e-19
4.26369e-18
0
0
-2.49801e-18
-6.72278e-18
-4.6109e-18
0
-9.24804e-18
-4.79971e-19
-1.69358e-18
2.57509e-18
-6.04759e-19
-2.68464e-18
1.87589e-18
2.35169e-18
-8.19575e-19
-1.34643e-19
3.19085e-18
-1.83657e-18
1.51901e-18
4.1697e-18
-2.71406e-19
-8.2689e-19
1.87749e-18
0
-3.21667e-19
2.82942e-19
-4.98185e-19
-1.87654e-18
2.5793e-18
-3.81649e-19
-6.68571e-18
2.94971e-18
5.14459e-19
-2.35696e-18
0
-2.11491e-18
4.68118e-18
-4.86745e-19
5.71409e-18
2.05551e-18
-4.47866e-18
3.70073e-18
8.53851e-18
-6.49579e-18
8.15163e-18
-4.0804e-18
-8.56052e-18
3.61944e-18
4.02426e-19
0
-5.83104e-19
0
2.24152e-18
-7.87879e-19
-1.55311e-19
-1.34643e-19
0
-8.39774e-19
-2.19693e-18
0
-2.71406e-19
0
1.71885e-18
0
-3.21667e-19
9.32072e-20
-4.98185e-19
0
0
4.68347e-18
-8.63835e-18
-8.48047e-18
-1.60475e-18
0
0
6.50033e-18
2.51082e-18
-4.86745e-19
-4.83674e-19
0
-8.28066e-18
0
0
0
0
-3.93429e-18
-4.3258e-18
-4.79971e-19
1.338e-17
3.28017e-18
-6.86805e-18
-1.2764e-17
-7.42448e-19
9.50751e-18
2.38879e-17
-1.31964e-18
-1.29398e-18
6.65746e-18
-1.1041e-17
7.45907e-18
-1.18021e-18
-1.34463e-18
6.12871e-18
-2.6166e-18
-3.98194e-18
7.52342e-18
-3.62165e-18
3.71414e-18
5.58767e-19
8.34249e-18
1.57955e-17
-2.15537e-17
1.0283e-17
-6.2828e-18
1.75902e-17
1.16178e-17
2.92402e-17
0
1.78139e-17
-8.47654e-18
1.50285e-19
-6.98128e-18
-2.5948e-17
0
-8.12583e-18
-1.88386e-17
9.62407e-18
-4.0862e-17
3.21908e-18
4.19404e-18
-1.71694e-17
3.87024e-17
1.52517e-17
-2.82206e-17
4.03363e-17
1.75666e-18
1.35867e-17
-1.69053e-18
-2.36035e-17
3.02731e-17
-4.2632e-17
-3.03445e-19
3.13753e-18
-4.63696e-19
1.58787e-17
1.72587e-17
-8.52814e-17
3.68939e-17
9.1825e-18
7.96837e-18
-3.89484e-18
7.88132e-20
3.49005e-18
9.28877e-19
-3.81964e-19
-5.14061e-18
1.47842e-17
-3.40477e-17
-1.57362e-17
-8.71207e-18
-9.85681e-18
5.93961e-19
-2.63088e-17
-1.11274e-18
-8.34204e-18
3.53139e-17
1.53202e-18
-2.25116e-18
-5.76056e-17
-2.04587e-17
-5.2025e-18
3.21331e-17
-5.52344e-17
-1.61351e-18
2.20821e-18
5.99084e-19
8.34109e-18
6.45865e-17
3.57837e-17
4.70794e-17
-3.19322e-19
-4.484e-19
-4.00988e-17
0
-3.55763e-18
-3.37847e-17
1.71805e-17
2.47303e-17
-3.81199e-19
-3.75338e-18
-7.22137e-18
-7.08824e-18
2.45527e-17
-7.59846e-18
-1.16882e-17
-7.01514e-18
1.56228e-17
1.08099e-17
8.16683e-18
0
1.49149e-18
-1.58378e-19
-2.89333e-17
-1.35551e-17
1.45188e-17
-1.9068e-17
-1.07396e-17
5.92012e-19
8.18364e-18
2.97356e-17
-9.67274e-18
6.32866e-17
-1.52524e-17
1.7642e-17
-4.32122e-17
-1.52597e-17
-2.13374e-18
3.55863e-17
1.14126e-17
-1.85446e-19
8.70611e-17
4.35206e-17
0
-3.26846e-18
3.20097e-19
-1.8777e-17
7.42918e-17
3.59397e-17
9.77736e-18
4.44762e-18
1.24974e-17
-7.61449e-18
5.6942e-18
1.73174e-18
-1.17447e-18
1.08647e-18
8.09135e-18
5.55687e-18
-2.33656e-17
1.30535e-18
-1.56975e-18
1.64258e-17
0
6.47807e-18
1.22113e-17
-2.48557e-17
2.10939e-18
-2.98629e-17
9.12525e-18
2.56965e-18
-1.58932e-19
-4.03179e-17
-2.25611e-17
-2.38046e-17
3.18389e-19
6.49966e-17
3.18672e-19
2.5418e-17
1.11945e-17
-2.52211e-17
-3.32197e-17
-2.03741e-17
0
-1.52597e-17
-3.2009e-19
2.1337e-17
-9.94288e-17
6.76106e-17
-5.26469e-18
-9.41389e-19
-2.38164e-17
-4.60376e-19
-2.40252e-18
-6.05802e-18
-1.98374e-17
-1.14083e-17
0
-5.43089e-18
1.12309e-17
8.04317e-19
1.52453e-17
-8.51919e-18
5.53136e-17
-1.97363e-17
1.58556e-19
-2.36528e-17
-9.24652e-19
1.01596e-17
0
-1.58865e-19
-1.92118e-18
1.4667e-17
6.18767e-19
3.21354e-17
-3.57812e-19
8.54156e-18
-1.25102e-17
1.8911e-17
0
-2.69901e-17
-4.30196e-17
2.20343e-17
3.40206e-17
4.26658e-17
0
1.53944e-18
-5.30111e-17
6.39147e-17
3.39686e-18
4.547e-18
3.93057e-18
-2.81616e-18
-2.32775e-18
7.88824e-20
-1.17859e-18
1.67541e-17
2.06561e-17
-9.50302e-19
-3.46099e-17
-9.5905e-18
1.60242e-17
-1.20776e-18
-8.62917e-18
-2.14379e-17
-2.20351e-17
1.58613e-19
-2.16686e-18
-1.19857e-17
-2.47873e-18
-4.61157e-17
-1.58924e-19
1.76053e-17
0
1.44088e-17
-1.29506e-17
2.96339e-17
-4.31385e-18
-1.36298e-17
-1.14028e-17
3.19126e-19
-3.08648e-18
3.19476e-19
1.77061e-17
-5.82043e-18
1.33733e-17
-7.71159e-18
-1.86059e-18
8.6907e-18
8.97529e-18
5.04806e-18
1.19854e-17
2.06123e-18
-6.93265e-18
-4.83778e-18
-7.89203e-20
7.19371e-18
-1.48509e-17
1.85768e-17
-5.92897e-18
1.6123e-18
1.58286e-19
-1.64907e-17
-7.65301e-19
2.63229e-17
1.72965e-17
7.65788e-19
-3.73446e-17
-4.08402e-18
2.03864e-18
1.26213e-17
-1.04007e-17
-2.39508e-17
-1.71059e-17
-1.48098e-17
2.95524e-18
3.38936e-18
1.25055e-17
1.19327e-17
6.99331e-17
4.51507e-17
-3.71445e-18
-2.89528e-18
-4.48563e-18
-2.05157e-18
5.14419e-17
3.74696e-17
-7.66383e-18
-3.20806e-19
-9.07873e-18
5.40731e-18
0
-3.02757e-19
-3.71272e-18
3.8178e-19
6.25759e-18
8.62646e-19
0
-7.94893e-19
1.33567e-17
-2.61522e-17
-2.88785e-17
-6.70202e-18
0
-9.6503e-18
2.21902e-17
1.82333e-17
2.00159e-17
2.42106e-18
9.62079e-18
1.87293e-17
-1.58916e-19
1.60745e-17
5.64399e-18
-2.18379e-17
1.18857e-17
3.185e-19
6.40866e-17
4.11424e-17
0
-5.63552e-17
-1.74722e-17
-4.18974e-17
-3.30695e-18
-3.69802e-17
-4.64056e-17
-1.56455e-17
-4.49378e-17
3.208e-19
-9.89418e-18
-2.55789e-18
7.94391e-18
1.15309e-17
5.354e-18
1.28294e-18
-1.18462e-18
1.7921e-17
-7.66488e-18
5.61735e-18
2.27228e-17
8.16313e-18
7.96824e-20
7.1783e-18
2.25233e-17
-1.85039e-17
1.00617e-17
9.01148e-19
2.09046e-18
3.40081e-17
-1.74946e-17
-4.69098e-17
-6.83311e-18
2.62181e-18
6.0936e-18
-1.76693e-19
5.38961e-18
2.13271e-18
-2.31629e-18
-3.65662e-18
-9.85703e-18
-1.5364e-18
-3.40446e-18
3.19457e-19
2.40618e-17
1.82863e-17
-4.22462e-17
-3.43488e-17
3.31999e-17
-3.20522e-17
-9.12885e-18
-1.26237e-17
3.5055e-18
1.46905e-17
-3.63718e-18
-5.54925e-18
-6.44271e-18
6.12596e-18
8.30546e-19
1.54261e-17
8.57179e-18
-1.31835e-18
-8.58083e-18
-1.35789e-17
-5.68039e-18
-2.67483e-17
-5.04679e-18
-1.27427e-17
-1.32558e-18
3.81069e-18
2.90089e-17
1.98955e-17
2.47288e-17
3.24563e-17
2.32009e-17
-3.18208e-19
-4.44477e-17
1.6829e-17
-2.49971e-17
3.91798e-17
4.88492e-17
2.04406e-18
-2.08613e-17
-8.26312e-17
-1.92076e-17
1.73292e-18
-5.64493e-17
-5.71373e-17
6.97438e-17
3.17087e-17
-1.97568e-17
4.67844e-18
-3.54808e-18
2.9449e-18
5.99214e-18
1.31695e-17
-4.86127e-18
5.13934e-18
5.00706e-18
-1.58044e-19
-8.73982e-18
0
0
0
-1.58394e-19
4.90561e-18
3.20096e-17
-3.51428e-17
3.12014e-17
-1.24782e-17
4.82738e-17
1.74625e-17
2.56041e-17
9.57274e-18
-1.67894e-17
3.18201e-19
1.57916e-18
3.94686e-18
-1.03572e-17
1.87143e-18
-5.05909e-17
-8.70536e-17
-3.09608e-17
6.27393e-17
8.25839e-17
-2.48094e-17
-1.66078e-17
-1.86928e-17
1.236e-17
-7.82485e-19