/*--------------------------------*- C++ -*----------------------------------*\
| =========                 |                                                 |
| \\      /  F ield         | OpenFOAM: The Open Source CFD Toolbox           |
|  \\    /   O peration     | Version:  2312                                  |
|   \\  /    A nd           | Website:  www.openfoam.com                      |
|    \\/     M anipulation  |                                                 |
\*---------------------------------------------------------------------------*/
FoamFile
{
    version     2.0;
    format      ascii;
    arch        "LSB;label=32;scalar=64";
    class       volScalarField;
    location    "constant";
    object      Cz;
}
// * * * * * * * * * * * * * * * * * * * * * * * * * * * * * * * * * * * * * //

dimensions      [0 1 0 0 0 0 0];

internalField   nonuniform List<scalar> 
3780
(
-3.34283e-19
-1.84191e-18
7.86285e-20
1.49267e-18
-4.37426e-19
-7.65646e-19
-2.35099e-20
-1.04749e-19
0
1.04217e-18
1.83884e-20
-2.38497e-18
-1.54206e-19
-3.82265e-18
2.20099e-18
1.83091e-20
-8.65895e-19
-1.60697e-18
1.40845e-18
-5.13935e-18
0
3.30861e-18
8.36267e-18
4.76595e-18
3.09204e-18
1.64515e-18
3.03936e-18
6.15639e-18
-8.6837e-18
-4.11736e-18
3.69468e-20
1.56655e-18
-3.69682e-20
7.63772e-18
2.31023e-18
7.43111e-18
-6.14172e-18
4.5827e-18
3.85032e-19
3.44229e-18
-1.15389e-19
-2.16183e-18
-4.81488e-19
3.02077e-19
1.21288e-19
-5.65053e-19
9.70325e-21
2.34548e-18
1.99709e-21
1.79623e-19
1.68653e-19
-1.36672e-18
-4.19609e-19
-1.27694e-18
-4.02276e-18
3.96655e-19
-1.61084e-18
-1.42678e-18
-3.69149e-18
-5.56472e-18
1.60641e-18
8.27196e-18
-5.96743e-20
3.36399e-18
9.302e-18
2.53679e-19
3.02496e-18
-4.0351e-18
5.19907e-18
2.99304e-18
2.57934e-19
2.39255e-18
-5.84783e-18
-3.42439e-18
-2.61815e-18
-4.81864e-18
-2.13517e-18
2.51834e-18
3.27505e-18
-2.87897e-18
1.51284e-18
-7.22176e-19
-1.73696e-19
-8.71525e-19
-1.14698e-18
-1.32044e-18
-1.97383e-18
1.75236e-18
9.12643e-19
-1.56167e-18
-7.6607e-19
3.67634e-18
9.74367e-19
-4.67784e-19
-2.35149e-19
-1.42849e-18
2.50817e-18
-1.69285e-19
1.19803e-18
0
3.53484e-18
-1.18521e-18
2.21372e-18
2.50374e-18
3.86901e-20
4.57521e-18
4.34956e-18
-1.33669e-17
4.31682e-19
-2.32773e-19
4.91167e-18
-1.65817e-18
1.06633e-17
-3.8812e-20
-9.49e-18
2.31181e-18
4.21901e-18
6.08629e-19
3.77722e-18
9.39856e-18
-9.53073e-19
-9.5847e-20
2.37626e-19
-6.58239e-19
-9.70037e-21
-6.19978e-19
9.06875e-19
8.24575e-19
-1.47253e-19
-4.84366e-19
-1.26982e-18
2.0058e-18
-1.87573e-18
-7.92155e-19
-2.9098e-18
-4.12171e-18
-1.29741e-18
-1.36579e-18
5.71178e-18
0
-2.00831e-18
-2.68456e-19
-2.01628e-19
2.27574e-19
3.86636e-20
-4.39649e-18
-5.72961e-18
-1.83331e-18
-1.39646e-18
-2.30385e-18
3.87574e-20
-1.80111e-18
7.38032e-18
-1.37743e-18
1.19037e-18
0
-1.80332e-18
1.61229e-18
-6.43757e-19
8.5694e-18
-8.22774e-19
0
-5.63105e-19
-5.21105e-19
4.06605e-19
1.87465e-18
-9.93206e-19
6.98741e-19
1.53611e-19
-1.19112e-18
-9.32088e-20
1.09618e-18
-7.46914e-19
-1.60247e-18
-9.07312e-19
-1.9173e-20
2.45164e-18
5.04695e-18
-7.91773e-18
-4.30259e-18
1.48165e-19
6.88987e-18
-5.37067e-18
-4.82744e-18
1.36061e-18
2.83935e-18
8.37689e-18
-1.92949e-18
-1.54466e-18
-1.11298e-17
-8.02561e-18
4.13365e-19
-3.08453e-18
-3.00437e-18
-3.19198e-18
6.95627e-18
-3.00819e-18
-7.69911e-20
-6.54358e-18
-1.97483e-17
7.27896e-19
-1.1601e-18
-1.27918e-18
-7.33559e-19
-5.32636e-19
-1.66562e-19
1.46361e-18
0
-1.361e-18
0
1.51587e-18
-1.55897e-18
2.96905e-19
-1.25858e-18
1.81211e-18
4.05169e-19
-3.46413e-18
1.90621e-19
-5.63959e-18
-4.54006e-18
-3.735e-18
2.99556e-18
-4.60708e-18
-6.74351e-18
0
3.9402e-19
8.38407e-18
3.0138e-19
3.86856e-20
3.01476e-18
4.61322e-18
2.92407e-18
1.04936e-17
-2.61249e-18
5.3728e-18
2.27285e-18
7.8155e-18
2.17586e-18
1.03739e-17
2.96844e-18
-4.31183e-19
4.71726e-19
0
2.76324e-18
2.32046e-18
-1.92856e-20
1.42962e-19
2.0761e-18
2.86824e-18
1.92097e-20
1.96127e-18
1.14982e-18
3.31032e-18
-1.90968e-19
-2.72307e-18
4.65711e-18
9.23861e-21
-2.60234e-18
0
5.97306e-18
-8.97206e-18
7.66052e-18
1.83552e-18
-2.29508e-18
-4.75014e-18
6.81916e-18
-2.30614e-18
4.42082e-18
1.87799e-18
-3.91673e-19
4.62855e-18
-5.12776e-18
3.07208e-19
1.11327e-17
9.76013e-18
-3.73588e-18
-4.73429e-18
-6.47026e-18
4.58738e-18
0
-2.3443e-20
-9.67732e-21
-3.51253e-19
1.60154e-18
-2.76446e-18
0
4.77007e-19
1.92155e-20
-9.10213e-19
-1.91579e-19
1.12176e-19
2.46658e-18
-1.13373e-18
7.38102e-20
-6.31012e-18
-5.51887e-19
-2.17334e-18
5.62952e-18
3.81694e-20
1.59929e-18
-8.74524e-18
-2.04806e-18
6.03527e-19
-1.97597e-18
3.93335e-18
1.32374e-17
-1.00337e-17
-3.40809e-19
-2.05764e-18
-7.81009e-18
1.84983e-18
4.23977e-18
-2.7326e-18
8.46653e-18
2.8552e-19
6.93581e-18
1.13968e-17
7.81511e-18
0
-7.75421e-20
-2.61316e-18
-1.64315e-18
-8.73745e-19
-1.88957e-18
-1.83709e-18
2.7957e-19
1.00422e-18
3.11198e-18
-1.15547e-18
2.31892e-18
-3.56639e-18
1.83751e-19
-1.89634e-18
2.13606e-19
-2.75716e-18
4.54598e-18
2.00652e-18
7.63279e-18
1.94421e-18
4.41377e-18
-5.54456e-18
3.65465e-18
-1.70035e-18
1.70985e-18
8.05927e-19
1.81195e-18
4.54973e-19
6.04501e-18
-6.27851e-18
4.05288e-18
-1.72358e-17
-9.57864e-18
-2.47827e-18
4.26367e-18
-2.52119e-18
6.56052e-18
2.60053e-18
-4.96595e-19
2.61212e-18
-3.19796e-18
0
-1.93199e-18
-1.54353e-18
-2.37151e-18
0
-2.50413e-19
-2.4638e-18
6.94155e-19
1.20225e-18
1.03805e-18
1.82348e-18
-1.78887e-18
-2.67427e-18
-7.9376e-18
-3.28498e-18
1.97399e-18
0
1.50533e-18
8.39105e-19
4.92685e-18
-6.73867e-18
-1.03578e-18
-2.91326e-18
-2.34314e-18
-2.78113e-18
3.43705e-18
2.75121e-18
-8.43207e-18
3.15673e-18
7.86076e-18
2.55427e-18
2.69776e-18
1.91002e-18
0
5.79475e-19
-5.21505e-19
-8.56933e-18
1.17165e-17
-3.43855e-18
1.17012e-17
6.49369e-19
-1.43448e-18
1.41986e-19
5.15309e-19
1.12999e-18
0
-4.44281e-19
-2.89479e-18
0
-1.03238e-18
-1.16953e-19
-1.27705e-18
2.0318e-18
2.1166e-18
-3.8115e-20
0
4.5251e-18
-1.27602e-18
-2.85874e-18
-9.15858e-19
-8.25867e-18
5.58532e-18
5.26687e-18
5.75584e-21
9.5346e-18
8.86667e-18
3.38105e-19
-9.91815e-18
6.62347e-18
3.7381e-19
-3.2518e-19
5.9757e-18
0
-1.39921e-17
-8.73436e-19
7.73693e-20
-1.26578e-17
0
-9.10236e-18
-1.37005e-17
0
5.57704e-19
-4.25015e-19
4.48392e-19
6.34337e-19
6.68207e-19
-9.1628e-20
5.18794e-18
-1.84788e-18
-1.14421e-18
1.61093e-18
1.66409e-19
-2.06834e-19
-3.78715e-18
1.58289e-18
-3.80629e-20
1.08808e-18
-1.47331e-19
1.35219e-18
-6.83099e-19
6.61499e-18
-6.83506e-18
-1.79137e-18
1.86476e-19
8.66803e-18
8.06695e-18
5.78089e-18
-4.47838e-18
-3.65453e-19
1.16302e-17
4.10367e-18
-2.77249e-18
1.44566e-17
7.27647e-18
-1.22216e-17
-3.60702e-18
-1.14331e-17
1.14484e-17
1.52494e-17
-3.58407e-19
-1.11674e-18
-1.27201e-18
-1.4061e-19
7.75158e-19
5.08766e-19
1.05678e-18
1.93035e-20
-2.34237e-19
-4.30381e-19
1.14105e-19
1.54942e-18
-2.30866e-19
5.35992e-18
2.2178e-19
7.03425e-19
-5.85779e-18
7.7259e-19
1.72497e-18
-8.28726e-18
6.43909e-19
8.17986e-18
0
-3.6929e-18
-6.82787e-18
0
4.29238e-19
-1.0716e-17
2.75011e-18
3.68937e-18
6.76277e-18
3.2887e-18
-6.669e-19
3.6261e-18
1.23916e-18
7.52321e-18
2.74732e-18
6.36009e-18
5.25938e-19
-5.91951e-18
-2.88905e-18
2.39377e-20
0
-1.21437e-19
1.1131e-19
1.0106e-18
-9.88763e-20
2.9223e-18
-1.59019e-18
7.86457e-19
2.14456e-18
-5.23566e-18
3.87987e-18
-3.76399e-19
-6.08767e-18
-1.75127e-18
1.9043e-18
-9.77464e-18
-3.79829e-19
-3.21406e-18
1.1346e-17
1.93665e-18
-1.93135e-20
-6.36716e-18
2.36093e-18
3.01282e-18
-9.14122e-18
4.59174e-19
3.43662e-18
-2.56964e-18
2.27127e-18
6.28039e-18
-1.02688e-17
2.88559e-18
2.23245e-18
3.43982e-18
8.29459e-18
1.28233e-17
2.87723e-18
-3.26481e-18
1.84139e-17
5.77946e-19
-2.73352e-18
-8.8947e-19
-8.50238e-19
-4.99753e-18
2.16425e-18
1.74937e-19
0
-2.59649e-18
-1.70948e-18
-2.25228e-18
-1.95846e-19
-1.76891e-18
7.03313e-18
1.44348e-18
-4.46266e-18
0
3.8753e-20
-2.54917e-18
-2.53061e-18
4.41141e-19
3.19256e-18
7.136e-19
-3.82981e-19
0
3.27281e-18
-1.5431e-17
-8.49974e-18
-5.67673e-19
5.6154e-19
-7.15331e-19
-5.47253e-18
-3.81212e-19
3.81301e-19
8.69557e-18
-1.1579e-17
-1.69371e-17
7.64495e-18
-4.19665e-18
-1.53862e-18
2.39417e-20
-5.87751e-19
9.21658e-19
2.02114e-19
-1.28813e-18
-1.92749e-20
2.32871e-18
-1.54576e-18
-1.10692e-18
2.50205e-18
0
2.22477e-18
-4.49716e-18
-4.13651e-18
-7.33367e-19
-4.67134e-18
6.58849e-19
1.16839e-17
2.57724e-18
-5.62051e-18
9.31368e-19
-3.11506e-18
1.01509e-17
-7.84939e-20
7.33839e-19
0
-6.48411e-18
1.84594e-17
8.79535e-18
-2.32368e-18
6.25011e-18
-5.50485e-18
-2.74213e-18
5.54891e-18
-3.42238e-18
3.6438e-18
-3.87594e-18
1.14399e-17
-2.39018e-17
-5.57166e-18
0
-8.02994e-19
-9.30546e-19
6.80526e-19
4.66305e-19
2.21793e-18
-4.51928e-18
-7.33864e-20
-2.71992e-19
1.9319e-20
-2.16483e-18
-4.6944e-18
2.66137e-18
-3.87041e-20
-1.72063e-18
2.0398e-18
1.39122e-18
-4.46863e-18
-7.37903e-19
-1.01317e-17
3.45701e-18
-3.87075e-18
2.97457e-18
6.21588e-18
-2.8427e-19
7.86364e-20
-8.75574e-18
3.30217e-18
-2.81489e-18
-1.22184e-18
-2.7769e-18
2.68454e-18
-6.71131e-18
-8.38319e-18
2.14454e-18
0
1.11553e-18
-2.26037e-17
1.19843e-18
-5.35555e-18
-9.96987e-19
7.18733e-19
7.69788e-19
4.69818e-20
-3.85188e-19
-2.38274e-19
4.62619e-18
7.00894e-20
-2.4407e-18
2.65543e-18
-3.7438e-18
1.84084e-19
-1.88431e-19
3.92308e-18
0
4.17608e-18
-3.07278e-18
1.49995e-19
-5.15781e-18
3.79193e-18
-6.17714e-19
6.16562e-18
6.1332e-18
2.5871e-19
-2.55261e-18
2.75946e-18
-3.92398e-18
-3.80714e-19
5.33966e-18
5.82533e-18
2.50395e-18
7.0941e-18
-4.74002e-18
1.08637e-18
7.51299e-18
4.67441e-18
7.91055e-20
-5.08571e-18
-1.15684e-17
7.91822e-20
-8.76402e-20
9.92152e-19
-1.1978e-19
8.48201e-19
-1.24716e-19
1.92585e-20
-6.97229e-19
-3.4853e-18
-2.99002e-19
-2.19254e-18
3.05386e-18
3.50998e-18
4.5279e-18
-7.71599e-18
-1.26032e-18
3.87246e-20
-2.07959e-18
-8.42502e-18
9.29012e-19
-3.0864e-18
-5.99087e-18
-3.91639e-20
-8.28982e-18
3.03537e-18
-2.4759e-18
8.38358e-18
2.96146e-18
2.7092e-18
7.88117e-20
8.13796e-18
3.02199e-19
-5.41449e-18
-3.17651e-18
-9.13857e-18
-2.71714e-17
4.6064e-19
-1.59662e-17
-1.89386e-17
-1.39882e-17
-2.16284e-18
-1.10085e-19
7.53888e-19
-9.29351e-19
9.9503e-20
5.60188e-19
-9.62029e-19
-1.5098e-19
1.50445e-18
4.92404e-18
-4.34891e-18
-1.13583e-19
1.23801e-18
-7.45544e-18
2.23949e-18
4.3058e-18
0
1.63556e-18
-7.37517e-20
-2.741e-18
5.50156e-19
1.21849e-17
-3.84634e-18
-6.68151e-18
-5.81245e-18
7.58085e-18
7.86452e-20
-9.6309e-19
-3.02791e-18
2.54434e-18
-2.0227e-18
2.40556e-18
4.81211e-18
4.72877e-18
4.95739e-18
1.89877e-17
-1.34505e-18
-1.01449e-17
1.01422e-17
-9.48238e-19
1.11607e-18
0
0
-8.39144e-20
-5.95498e-19
-1.24062e-18
-1.01028e-18
-3.1868e-18
0
-2.49449e-18
1.25108e-18
-1.70827e-18
-4.72846e-18
-3.49148e-19
-2.46424e-18
1.80963e-18
-1.88684e-19
-2.19294e-18
4.10309e-18
-2.53278e-18
5.29932e-18
3.02747e-18
-3.3874e-18
7.23154e-18
9.56598e-19
5.0122e-18
3.14602e-18
-2.4579e-18
-1.32254e-17
5.44835e-18
2.93943e-18
-7.89111e-20
1.05093e-17
1.00897e-17
0
9.45184e-18
4.62536e-19
7.91196e-20
1.00502e-17
-1.45298e-17
-3.02679e-19
2.39525e-20
1.43461e-18
9.04602e-20
2.36837e-19
1.45297e-18
-3.25503e-20
-3.34564e-18
-2.13824e-19
2.42875e-18
0
2.1935e-18
-1.96801e-19
-4.86061e-19
-1.14849e-18
2.35161e-18
-3.45964e-18
2.27452e-19
1.59638e-18
2.16031e-18
-1.21653e-17
5.9272e-18
-3.51303e-19
5.66914e-18
4.36261e-19
-1.35047e-17
4.37985e-18
-4.6093e-18
1.83338e-18
-5.32254e-20
4.61796e-18
-1.5573e-18
-5.14149e-18
-4.13802e-18
1.04962e-18
5.22604e-18
-8.76518e-19
9.78974e-19
-4.33928e-18
-1.06116e-18
-7.92017e-20
-1.53807e-18
-3.18302e-18
5.93258e-19
-4.71142e-19
1.55624e-18
8.07828e-20
-1.61544e-18
1.52216e-18
-2.12974e-18
-4.73254e-19
-6.29751e-18
-1.93239e-20
1.32906e-18
1.05189e-18
-2.28068e-19
2.11286e-19
1.52831e-18
-3.4402e-18
-2.3834e-18
-2.13218e-18
-3.91147e-20
5.62843e-18
-2.46393e-18
2.91485e-18
6.37248e-19
1.11269e-17
2.34328e-18
8.02388e-18
-2.30608e-18
-5.00853e-18
9.65319e-18
-7.896e-20
-9.64586e-18
1.42382e-17
-1.95867e-17
5.41334e-19
5.37067e-18
4.7542e-19
4.73977e-18
9.34341e-18
-5.38254e-19
1.29657e-18
6.03122e-20
-1.09665e-18
4.97047e-19
-8.58724e-19
-2.60499e-18
-1.46375e-19
-2.43251e-19
1.84058e-18
-6.45698e-19
-3.60676e-19
-7.89726e-18
-2.49309e-18
-3.86989e-20
5.3171e-19
-5.32331e-19
-1.16875e-17
-3.87525e-20
6.79354e-18
-2.24753e-18
-7.83345e-20
-7.94931e-18
3.03397e-18
5.25147e-18
3.93404e-18
-2.28886e-18
-1.73716e-18
-9.61231e-19
8.44626e-18
-1.40403e-18
-5.35608e-19
4.90835e-18
3.02461e-19
-5.84422e-19
-1.00986e-18
-4.42281e-18
4.88808e-18
-4.51433e-18
-8.8795e-18
-4.8412e-19
-4.52001e-19
1.17479e-18
1.41166e-19
-9.86127e-19
-1.92272e-20
-3.92243e-18
-3.8299e-19
-2.4593e-19
3.01691e-18
-2.27511e-19
-6.33964e-18
1.09816e-18
5.91405e-18
-2.13212e-18
2.89353e-19
3.87264e-20
-5.90883e-19
1.88792e-19
3.14812e-18
4.9872e-18
7.47799e-18
-2.58633e-18
-5.39081e-18
1.84766e-18
-7.86587e-20
-3.80697e-19
7.76669e-18
1.88966e-17
9.29777e-19
5.39024e-18
-3.82803e-18
-1.84637e-17
1.50039e-18
9.81e-19
-8.87907e-18
-1.02485e-17
-1.53466e-17
-5.69119e-18
2.20806e-17
-5.02004e-19
-3.37927e-19
-7.06599e-20
1.25125e-18
-6.07548e-19
1.92222e-20
1.8267e-19
1.11906e-18
-2.25612e-18
-9.46158e-19
3.57286e-18
-1.90599e-19
-2.50049e-18
3.46625e-18
6.13937e-18
7.45474e-18
-8.45664e-18
-8.27797e-18
-4.3691e-18
8.39548e-18
-5.07772e-18
-5.96136e-18
0
8.7112e-18
-6.01e-19
5.22373e-18
-7.87243e-20
2.89873e-19
-7.88351e-20
-4.39762e-18
-9.03874e-18
3.81346e-19
-3.81445e-19
-1.33234e-17
9.45376e-18
-9.47902e-19
-1.32084e-17
3.81852e-19
-4.51715e-18
-9.70114e-19
5.72668e-19
-2.76294e-19
5.7233e-19
0
-6.84177e-20
-2.58709e-18
6.97956e-19
3.90074e-18
-4.48983e-18
-3.55861e-19
2.43842e-20
-1.02681e-18
6.54346e-18
-2.84499e-19
-4.69327e-18
0
-3.61216e-19
2.80371e-18
2.13081e-18
2.04539e-19
-8.56402e-18
2.42136e-18
-4.13069e-18
-2.47959e-18
4.5587e-18
-8.77705e-18
9.09355e-18
5.07144e-19
-5.67162e-19
1.04363e-18
7.98696e-18
-9.0179e-18
0
4.60056e-18
-5.25042e-18
0
-4.20688e-18
8.96967e-19
9.46214e-19
4.8737e-19
-8.5728e-19
1.18932e-18
6.98025e-19
-1.25714e-18
-2.87518e-19
-6.17144e-19
-9.42903e-19
-2.82416e-19
1.02323e-18
-3.14291e-18
-1.77271e-19
8.76566e-18
1.14604e-17
4.94983e-18
2.25185e-18
1.88163e-18
-1.40999e-18
1.08345e-17
8.63782e-18
2.71437e-18
-5.32254e-18
1.91711e-18
-9.99739e-18
1.5685e-17
2.61102e-18
-4.393e-18
4.33464e-18
7.87878e-20
7.88412e-20
-3.81157e-19
4.88045e-19
1.3578e-17
3.81481e-19
8.84719e-18
-6.13552e-18
-7.2279e-18
-1.67614e-17
-2.16227e-17
-1.79458e-18
3.45087e-18
1.98867e-18
-4.67991e-20
-1.83011e-19
2.3701e-18
9.68181e-19
-7.31574e-19
-2.9095e-19
2.65564e-18
-4.70523e-19
-2.53814e-18
1.94378e-18
-1.86199e-19
1.70617e-18
3.9237e-18
2.28237e-18
-8.02653e-19
4.80201e-18
4.31719e-19
2.88563e-19
1.49272e-18
2.45993e-18
2.24214e-18
2.4603e-18
2.10438e-18
7.85984e-20
-2.12804e-19
9.38126e-18
-5.88928e-19
-9.06726e-18
5.36866e-19
-7.89391e-20
-4.04542e-18
-1.40184e-17
9.64503e-19
8.36301e-18
0
-8.23958e-19
8.78485e-19
-1.20744e-17
-6.48394e-20
2.32356e-18
-3.4366e-19
-9.55379e-21
-1.72632e-18
-1.91755e-20
1.56635e-19
-1.92264e-20
-9.1339e-19
-1.92657e-20
-1.94432e-18
3.33148e-18
2.80209e-18
3.6557e-18
1.97912e-18
-3.54896e-18
3.08879e-18
-8.16122e-18
-4.13098e-18
-4.55209e-18
2.20779e-18
2.77718e-18
3.60788e-19
7.84372e-20
4.84005e-18
-8.2973e-18
1.30093e-17
-1.6426e-18
-1.66931e-17
-4.59911e-19
8.90359e-18
1.72372e-17
7.58166e-18
1.86906e-18
1.61906e-17
4.40503e-18
1.17415e-17
3.93993e-18
0
7.85648e-18
-4.03849e-18
0
3.75939e-19
9.47791e-20
1.07214e-18
1.02564e-18
2.54771e-18
5.56375e-18
-2.47497e-18
3.96749e-18
4.26306e-18
1.89462e-18
-1.12302e-18
0
4.81936e-19
7.48498e-18
2.86913e-18
-5.09051e-18
-8.34657e-18
2.54208e-18
4.41607e-19
-4.35892e-18
-2.14746e-18
-5.11106e-18
0
4.18689e-18
3.59651e-18
7.87373e-20
-8.34133e-18
-1.08832e-17
2.08772e-17
1.18261e-17
-2.36932e-18
-7.63066e-19
-3.81627e-19
-7.90982e-20
1.70565e-17
2.79619e-18
8.65774e-19
-4.70863e-18
3.12875e-18
-4.44429e-19
5.1032e-19
9.546e-21
-4.08617e-19
-9.17641e-19
-1.7425e-19
3.56204e-18
-5.69502e-18
-2.34739e-19
-1.15602e-18
2.01966e-18
-1.17961e-18
-8.65689e-20
-2.60336e-18
5.31666e-18
8.86129e-19
3.13361e-18
-5.13093e-18
-1.08482e-17
0
-2.23872e-18
8.91489e-18
-4.26126e-18
-5.02346e-18
3.8115e-19
9.05285e-19
-3.35397e-18
-1.25947e-17
1.6431e-17
1.242e-17
1.53053e-17
4.33371e-19
-3.81549e-19
9.28732e-19
1.97443e-17
8.01356e-18
6.67656e-18
2.00396e-17
5.01013e-18
-7.92435e-20
0
-7.52773e-19
-1.37222e-18
0
-1.80111e-18
0
0
-2.51237e-19
0
1.89063e-19
0
0
-6.51919e-18
-1.84075e-18
0
-1.40738e-18
0
-9.03229e-18
6.33544e-19
0
2.12152e-18
4.83118e-19
7.98543e-18
-4.33815e-18
-7.69949e-18
1.2241e-17
0
-3.72968e-18
-1.05969e-17
0
0
0
8.42122e-19
0
0
0
-8.36743e-19
8.37393e-19
-8.38744e-19
0
1.33026e-18
0
1.13005e-18
1.03325e-18
-9.72724e-19
-2.34544e-18
2.02468e-18
8.56036e-19
0
-8.26915e-19
4.49273e-18
0
4.53324e-18
6.06332e-18
2.03459e-18
-1.44874e-18
5.45638e-18
-4.64328e-18
4.43878e-19
0
-9.1167e-18
4.83118e-19
-4.62856e-18
0
-3.92788e-18
4.3202e-18
-4.26715e-18
8.06129e-18
8.6362e-19
7.92141e-18
0
-3.72215e-18
1.22546e-18
3.69421e-18
3.68647e-18
-7.74857e-18
2.84525e-18
8.97448e-18
1.46916e-17
7.39892e-18
-4.48181e-19
0
-1.38521e-19
0
-9.9854e-19
-3.18403e-18
0
8.88573e-19
0
-5.29635e-18
1.66584e-18
0
2.23578e-18
1.95052e-18
-1.89461e-19
1.49131e-18
0
0
4.43878e-19
0
0
2.67272e-18
-2.61138e-18
0
-7.78072e-18
-4.05351e-18
-1.71426e-17
1.26218e-17
8.6362e-19
0
7.70613e-18
-3.83153e-18
1.22546e-18
-3.41933e-18
1.9741e-17
1.13721e-17
-8.36743e-19
4.53627e-19
1.51254e-17
3.80817e-18
-4.85445e-19
0
-1.38521e-19
2.2838e-18
-1.95605e-18
0
1.55233e-18
-2.51237e-19
3.22672e-18
0
9.49873e-18
0
-2.30148e-18
-2.00784e-18
0
0
0
-1.89621e-19
1.15628e-17
9.48609e-18
-2.3141e-18
3.11859e-18
-4.72056e-19
-2.53964e-18
4.54331e-19
0
0
8.5192e-18
-3.54699e-18
0
0
-3.94412e-18
-3.46822e-18
0
3.90631e-18
-1.63755e-17
-8.36743e-19
8.37393e-19
3.072e-18
-3.53617e-18
0
1.67894e-18
-8.04763e-19
1.22111e-18
9.58295e-19
-9.12772e-19
0
-2.51237e-19
3.31599e-18
9.45313e-20
0
0
0
0
5.41787e-18
0
-5.72768e-18
5.23717e-18
1.63228e-17
0
0
5.505e-18
-5.38764e-18
0
4.54331e-19
0
-3.82577e-19
0
8.6362e-19
-1.2717e-17
4.08284e-18
4.06002e-18
1.29693e-17
0
0
-4.40035e-18
-8.36743e-19
9.25966e-18
-4.86441e-18
-2.05602e-17
4.88864e-19
1.72552e-18
-1.38521e-19
1.25423e-18
2.06709e-18
0
0
-2.51237e-19
-1.16745e-18
-9.2848e-19
0
1.58935e-18
3.84741e-18
-2.12757e-18
3.52859e-18
1.62668e-18
-2.85042e-18
-2.68996e-18
2.6395e-18
0
-2.45209e-18
4.83118e-19
-4.72056e-19
-7.24088e-18
-4.41917e-18
-4.80386e-18
-3.82577e-19
0
-3.78718e-18
1.34625e-17
-4.58594e-18
8.35865e-18
8.42122e-19
0
-1.6557e-17
-5.28561e-18
-1.22043e-18
8.37393e-19
3.30522e-18
3.76994e-18
5.03229e-19
0
-1.38521e-19
-1.19425e-18
-1.01544e-18
8.67316e-19
6.49361e-19
-2.90527e-18
-2.30348e-18
0
-1.84721e-18
0
2.51039e-18
-2.19009e-18
0
-1.48496e-18
-1.46709e-18
0
1.21239e-17
0
0
-4.43395e-18
1.93003e-18
-2.35347e-18
5.07759e-18
-9.48516e-18
-9.74487e-18
-4.43751e-18
8.6362e-19
2.25486e-17
0
0
8.42122e-19
8.92311e-18
0
2.20486e-17
3.41897e-18
1.43817e-17
4.19466e-18
0
5.4211e-19
-8.17614e-19
5.88196e-19
1.93808e-18
2.70738e-18
0
-1.53112e-18
-2.51237e-19
-1.32591e-18
5.20284e-18
5.30947e-18
0
0
-3.57107e-18
0
-5.17105e-18
0
0
7.99254e-18
0
-8.17622e-18
-2.04766e-18
-4.72056e-19
-8.03192e-18
4.54331e-19
9.75265e-18
-5.00437e-18
4.56791e-18
8.6362e-19
0
-4.83657e-18
-1.36689e-17
8.42122e-19
0
-4.3861e-18
4.38135e-18
7.92479e-18
-7.93078e-18
-5.9975e-18
0
-5.57332e-19
8.89918e-19
6.09551e-19
-1.35954e-18
1.076e-18
0
0
-3.45653e-19
0
-1.10729e-18
1.8916e-19
0
-1.51937e-18
-3.67044e-18
0
5.70204e-18
-6.59746e-18
2.7273e-18
2.64913e-18
0
-8.40528e-18
8.68009e-18
-4.72056e-19
-5.36965e-18
-1.99515e-18
2.4114e-18
4.75761e-18
3.82732e-19
8.6362e-19
0
-1.41361e-17
-1.02671e-17
8.42122e-19
4.52447e-18
4.89851e-18
0
-1.51326e-17
-8.18843e-18
-6.12653e-18
0
2.26791e-18
4.69005e-20
-9.55549e-19
0
9.41757e-20
9.46044e-19
-2.52799e-18
-8.5481e-19
-2.59848e-18
0
-1.80855e-18
3.33339e-18
-2.92759e-18
1.19445e-18
4.36418e-18
3.84247e-18
1.60026e-18
-2.80744e-18
4.43878e-19
1.12144e-17
0
4.83118e-19
-3.09218e-18
-2.5671e-18
5.49725e-18
0
0
1.56691e-17
8.6362e-19
9.88693e-18
0
-1.48444e-17
8.42122e-19
1.5506e-17
4.64766e-18
-3.83612e-19
-8.36743e-19
5.48292e-18
-1.59491e-17
-9.71197e-18
-5.40944e-19
1.50828e-18
6.54162e-19
-9.40703e-20
-1.14016e-18
0
0
-3.45653e-19
2.5748e-18
9.45313e-20
0
-1.61827e-18
-4.41741e-18
-1.22955e-18
-2.1487e-18
0
-1.64729e-18
1.89621e-19
2.98162e-18
0
0
-5.41942e-18
-4.72056e-19
-1.13342e-17
-7.71455e-18
-5.11039e-18
0
4.98255e-18
8.6362e-19
-4.5086e-18
4.47457e-18
-1.00443e-17
-9.16036e-18
0
0
-5.16266e-18
-8.36743e-19
5.61943e-18
-8.38744e-19
0
0
0
-9.54497e-19
0
5.86834e-19
-1.00246e-18
-7.65245e-19
4.88375e-19
0
0
0
0
5.80311e-18
1.45507e-18
-2.21184e-18
2.12491e-18
0
0
-2.16843e-18
0
0
4.83118e-19
-6.40659e-18
0
3.50838e-18
-5.64297e-18
-1.89283e-17
0
-4.98004e-18
2.09074e-17
1.0384e-17
0
8.42122e-19
-1.55724e-17
1.55415e-17
0
-2.12794e-17
8.37393e-19
-8.38744e-19
-9.88434e-18
0
0
7.01433e-19
0
2.51049e-18
-2.1581e-18
-8.8485e-19
4.15693e-19
0
0
-2.16188e-18
1.71477e-18
-1.49341e-18
-1.30287e-18
2.27683e-18
-2.18178e-18
0
0
6.01169e-18
2.36369e-18
-6.38763e-18
-5.36712e-18
-6.56976e-18
-3.18213e-18
-8.1789e-18
-5.79756e-18
3.05355e-18
5.66241e-18
-4.74638e-18
-3.83005e-19
-5.14737e-18
-3.83237e-19
6.70519e-18
-1.63909e-17
0
-1.08953e-17
4.22663e-18
8.37393e-19
2.02301e-17
5.0874e-18
-2.40934e-20
0
1.6847e-18
-7.31326e-19
-1.95966e-18
1.06224e-18
0
-2.69681e-18
0
0
1.01534e-18
0
4.8012e-18
4.21286e-18
2.34374e-18
0
-1.79681e-18
0
-2.51388e-18
-5.24572e-18
0
4.83118e-19
5.41182e-18
0
-8.42136e-18
0
-1.13804e-17
2.01701e-17
3.93686e-18
0
-5.29863e-18
0
8.42122e-19
0
0
-1.08093e-17
-8.36743e-19
-4.37872e-18
1.03778e-17
0
1.29297e-18
5.29405e-19
1.19654e-18
-1.5997e-18
2.01448e-18
-1.18772e-18
-2.06393e-18
-2.51237e-19
-1.39249e-18
1.20496e-18
-1.8916e-19
0
-4.93672e-18
-2.76113e-18
5.20414e-18
-2.11107e-18
5.54884e-18
1.17364e-17
-2.40556e-18
0
0
4.83118e-19
8.99489e-18
-2.9671e-18
3.36868e-18
-6.12048e-18
2.83026e-18
5.59452e-18
8.6362e-19
0
-1.44021e-17
-1.12309e-17
8.42122e-19
0
1.11272e-17
1.11157e-17
-8.36743e-19
-2.14077e-17
2.18246e-17
0
0
0
-1.38521e-19
5.8014e-19
0
0
0
-4.17028e-18
-1.07309e-18
0
5.02182e-18
0
3.8478e-18
-2.1278e-18
-1.89461e-19
0
-4.65523e-18
1.03817e-17
2.2604e-18
5.79045e-18
-2.83361e-18
5.64186e-18
6.911e-18
4.57306e-18
-4.41965e-18
0
0
0
-3.40476e-18
-3.83005e-19
4.58638e-18
-8.35953e-18
9.16536e-18
-2.56572e-17
-9.04644e-18
-5.28605e-18
-8.36743e-19
-7.4382e-18
-1.32719e-17
-2.19231e-17
4.71408e-19
-1.66726e-18
-1.38521e-19
5.59367e-19
0
-2.62595e-18
2.97541e-18
9.47644e-19
-2.25828e-18
-2.78051e-18
0
0
-7.4336e-18
2.05161e-18
5.75686e-18
-4.89531e-18
0
0
4.43878e-19
2.24045e-18
-5.11033e-18
5.08926e-18
-4.72056e-19
-1.14053e-17
-8.58972e-18
0
0
9.07929e-18
4.97916e-18
4.46404e-18
-4.05275e-18
0
8.42122e-19
0
-3.99146e-18
0
-8.36743e-19
8.37393e-19
-7.10741e-20
0
-4.78622e-19
1.51712e-18
-1.38521e-19
0
0
6.89114e-19
2.10955e-18
-2.51237e-19
-2.18418e-18
-8.63268e-19
0
0
2.45677e-18
0
0
-1.51243e-18
0
-2.13511e-18
6.94744e-18
-7.93642e-18
-2.66112e-18
4.83118e-19
-4.72056e-19
0
4.54331e-19
0
-3.82577e-19
8.39886e-18
8.6362e-19
0
0
0
-1.54002e-17
3.85662e-18
0
0
-8.36743e-19
8.37393e-19
-8.38744e-19
-2.39404e-17
9.00599e-19
-4.69005e-20
1.75291e-18
-1.65415e-18
-3.6315e-18
0
0
1.88347e-18
0
3.61302e-18
7.59814e-18
-2.69956e-18
-1.28245e-18
-3.81462e-18
-1.66656e-18
-1.64779e-18
2.55532e-18
0
6.15915e-18
0
-1.13724e-17
3.00575e-18
-4.72056e-19
-3.71717e-18
-3.9542e-18
0
0
1.19764e-17
4.6897e-18
0
-3.83125e-19
0
-6.23531e-18
0
-3.71073e-18
3.83612e-19
-8.36743e-19
8.37393e-19
1.51725e-17
1.15553e-17
-1.71433e-18
0
4.54282e-19
0
-9.4684e-19
-2.27912e-18
0
-2.30612e-18
-1.02193e-18
-1.6051e-18
0
0
0
-5.70645e-18
1.60689e-18
5.81374e-18
1.89573e-19
0
4.43878e-19
0
-4.23904e-18
4.83118e-19
3.94378e-18
-8.28683e-18
-7.69217e-18
-3.82178e-18
0
0
8.6362e-19
-3.65816e-18
-1.16646e-17
-7.60822e-18
-3.13803e-18
0
-3.57786e-18
-7.53158e-18
2.73677e-18
8.37393e-19
1.06747e-17
-2.23106e-17
0
0
1.00463e-18
0
0
-6.07939e-19
0
-2.51237e-19
-8.94239e-19
0
0
0
-4.2543e-18
-1.77317e-18
3.47762e-18
0
4.7512e-18
0
4.43878e-19
0
0
4.83118e-19
-1.25226e-17
0
4.54331e-19
3.68493e-18
0
0
8.6362e-19
0
3.50271e-18
3.86637e-18
8.42122e-19
3.84043e-18
0
0
2.60881e-18
4.53627e-19
2.99876e-18
0
-2.8975e-18
-1.14946e-17
8.48269e-18
1.48999e-17
-1.08635e-17
-4.23393e-18
5.39472e-18
1.05984e-17
2.2452e-17
6.10962e-18
7.58247e-18
2.48265e-17
6.17748e-18
-1.03687e-17
4.17158e-18
1.47984e-18
1.08457e-18
5.04003e-18
2.95119e-17
-5.4978e-18
-1.03563e-18
1.88296e-17
-5.83895e-18
-7.4503e-20
1.18922e-17
-7.4632e-20
-1.12659e-17
2.81018e-17
1.49608e-19
-8.91047e-18
1.78295e-18
7.55764e-18
4.47169e-18
-1.35273e-17
-3.24966e-17
-3.01919e-17
2.30338e-19
-4.30397e-17
2.85268e-17
1.56565e-18
-3.85082e-17
3.46653e-17
3.29984e-17
-2.9658e-17
-4.39275e-17
2.58595e-17
-1.54738e-17
0
3.82074e-17
-6.07013e-17
2.24217e-17
-3.30932e-17
-1.35385e-17
4.21902e-18
-2.2449e-17
-5.68368e-17
-1.81179e-17
1.76014e-17
-5.45496e-18
3.05833e-19
8.31493e-19
1.30523e-18
-3.7329e-18
6.25779e-18
-1.92949e-17
-1.69507e-17
1.59164e-17
-4.73339e-18
9.21859e-18
2.62964e-17
1.41463e-18
-8.14242e-18
-2.00884e-17
4.3543e-18
-8.50789e-18
2.28317e-17
1.32785e-17
-9.68729e-18
-2.23853e-17
-2.06354e-17
-1.24438e-17
3.54061e-17
1.15027e-17
-2.7463e-17
3.37869e-18
-1.49352e-18
-3.79272e-17
-2.33984e-17
1.56231e-17
-1.84414e-17
-1.53821e-18
7.66213e-18
2.74386e-17
1.67254e-17
-3.61667e-18
8.12901e-17
1.68669e-17
4.99706e-17
1.87311e-17
1.26509e-17
3.80843e-19
-2.35651e-19
7.81997e-18
-7.62705e-19
-6.56995e-18
1.18439e-17
-2.17618e-17
1.57554e-19
9.89595e-18
8.45754e-18
-4.1763e-18
7.95485e-18
-2.73927e-17
2.23119e-17
5.7427e-18
1.95695e-17
-2.3902e-17
3.20643e-17
1.14188e-17
-1.7665e-17
-3.42095e-18
-1.02509e-17
-2.22362e-17
-6.21946e-17
-1.95074e-17
-3.09621e-17
-2.85012e-17
0
-8.8505e-17
8.28289e-18
2.4012e-17
1.04851e-17
-3.78702e-17
-1.3194e-18
7.43553e-18
-1.60177e-18
3.91726e-17
-2.07792e-17
-4.18391e-17
7.40678e-17
3.02571e-19
-8.35908e-18
-7.37405e-18
1.87508e-17
5.68661e-18
0
2.77412e-19
-4.83679e-18
-1.57698e-19
4.34351e-17
8.69395e-18
-1.52443e-17
2.14618e-17
-3.96835e-18
-1.11781e-17
-4.29989e-18
-2.23109e-18
-1.93036e-17
-1.94586e-17
-7.6667e-18
3.51192e-17
1.73619e-17
1.90466e-18
-3.24998e-17
-2.45058e-18
-3.00162e-17
7.58682e-19
-1.13185e-17
-8.88885e-17
-6.16458e-17
1.27884e-17
1.53892e-18
5.65996e-17
2.62829e-17
4.17907e-17
-3.43387e-17
6.43978e-17
9.06871e-18
7.2226e-17
-3.32508e-18
-3.71002e-18
-1.96286e-18
-6.15438e-18
-1.28111e-17
2.41877e-17
9.57416e-19
1.48726e-17
-3.53051e-18
2.35414e-17
5.71e-18
-1.28801e-18
8.05477e-18
2.01874e-17
-1.35837e-17
-1.9154e-17
4.00703e-17
-1.0812e-17
-2.15505e-17
-9.95151e-18
1.76125e-17
3.69064e-17
-1.84265e-17
4.94499e-17
-3.21817e-17
2.64687e-17
4.57353e-17
3.06781e-17
-2.55151e-17
-2.5983e-17
-2.16646e-17
5.78547e-17
7.01196e-18
-4.66129e-17
2.64295e-17
2.27601e-17
-3.75064e-17
1.55308e-17
-3.55715e-17
-4.20617e-17
1.09018e-16
1.27005e-17
3.81231e-19
4.63583e-19
4.45382e-18
4.00182e-18
6.36238e-18
-1.06187e-17
-1.7488e-17
-8.85483e-18
9.10434e-18
8.06173e-18
-8.18437e-18
8.22224e-18
2.05749e-17
8.01825e-18
2.5622e-18
-2.28169e-17
0
-2.31116e-17
3.62625e-17
0
7.35623e-17
-5.11366e-17
-2.1103e-17
5.99653e-17
3.82669e-17
-1.15664e-17
1.22712e-17
-2.42791e-17
1.3527e-17
-1.12766e-17
-5.14399e-17
1.42936e-18
4.06794e-17
-6.23203e-18
2.44449e-17
-1.54246e-18
3.41217e-17
8.02368e-19
1.39849e-17
2.22584e-17
8.04633e-18
8.36631e-19
-1.19878e-18
1.57381e-19
0
-4.89777e-18
1.47251e-17
1.39014e-17
-1.06397e-17
1.75383e-17
7.08866e-19
2.1247e-17
1.16649e-18
3.96383e-18
5.92508e-18
3.23879e-17
-1.03524e-17
1.289e-18
-1.94184e-17
1.58845e-19
-1.65039e-18
-9.06918e-19
-4.26341e-18
-1.43185e-17
-1.75996e-17
-7.14628e-17
1.30907e-17
2.60138e-17
-1.515e-17
3.72409e-17
-9.64542e-18
4.9481e-17
2.3194e-17
-2.07686e-17
8.22833e-18
3.53885e-17
-3.91672e-17
4.81785e-17
4.69223e-17
0
0
-5.83952e-18
1.8075e-17
-3.46902e-17
-2.93468e-18
2.02385e-17
9.58741e-18
1.60463e-17
7.94809e-18
-1.26484e-18
-2.23811e-17
-3.25471e-17
1.36194e-17
-6.07764e-18
1.13462e-17
9.43798e-18
-3.89907e-17
9.25315e-19
-3.72473e-17
3.48306e-17
3.52356e-17
6.11291e-17
-2.30731e-18
-1.53573e-18
-4.1541e-17
1.66456e-17
2.03784e-18
-2.26048e-17
0
-3.0773e-18
-2.32994e-17
3.63086e-17
3.20251e-19
3.03354e-17
7.97179e-19
-6.53209e-18
5.04935e-17
2.33972e-17
3.70422e-17
8.85616e-19
8.51946e-19
0
-6.69604e-18
1.15844e-17
2.35599e-17
1.62019e-17
3.6288e-18
1.21478e-17
-4.96078e-18
-7.76514e-18
-8.10125e-18
7.54404e-18
-1.12155e-17
6.06077e-18
5.14593e-18
-3.19315e-17
2.21602e-17
7.66666e-19
3.99325e-18
-1.07998e-17
-3.36106e-17
5.30727e-17
-2.6646e-17
3.32089e-17
1.23791e-17
8.69817e-17
6.84239e-17
4.71237e-17
-3.16035e-17
0
3.57649e-17
5.43851e-17
-2.16706e-17
-3.60271e-18
-1.9342e-17
5.55498e-17
4.03551e-17
-3.30166e-18
6.18444e-17
-4.70217e-18
1.22477e-18
5.69018e-18
7.87002e-20
-5.2942e-18
-2.80566e-17
9.62341e-18
1.57807e-19
-1.12134e-17
0
-1.33112e-19
9.23495e-19
1.06218e-17
3.44793e-18
-4.12409e-19
-1.08407e-17
1.90707e-18
9.12617e-18
-2.03159e-17
9.44789e-18
3.68765e-17
8.7701e-18
-3.18794e-17
2.06263e-17
1.67316e-17
-1.13922e-17
1.45733e-17
1.27939e-17
9.18939e-18
1.33219e-17
-5.97323e-17
5.0371e-17
5.93176e-17
-3.70421e-17
-1.85548e-17
-4.03816e-18
6.21085e-17
-4.08885e-19
-3.30125e-18
3.89467e-17
1.0443e-17
9.50842e-18
1.9599e-17
0
-3.34248e-17
-2.11139e-17
-1.01111e-18
-2.04466e-18
1.57933e-19
2.45954e-17
6.30192e-18
-1.43709e-18
1.01645e-18
-9.07674e-18
-1.69058e-17
2.3626e-18
-1.067e-17
-7.6431e-18
3.08118e-17
-1.58838e-19
1.58918e-19
-5.91949e-17
-1.56887e-17
-3.18329e-19
2.80609e-17
-1.70327e-18
-1.75372e-18
2.919e-17
5.08323e-17
-4.03087e-17
2.30092e-17
-2.18529e-17
0
-3.14897e-18
-5.88008e-17
-7.71663e-19
0
-2.52706e-17
8.73044e-19
7.21029e-17
4.7606e-19
3.81611e-19
-3.8174e-19
2.18245e-17
7.30048e-18
9.39226e-18
1.99486e-17
-4.32076e-18
-8.59874e-18
0
-2.39344e-17
-1.27169e-17
5.51958e-17
-1.17542e-19
-3.54149e-18
-3.4984e-17
1.35269e-17
-2.05142e-17
-7.05114e-17
1.97717e-18
2.27617e-17
2.70496e-17
4.6738e-18